# generated using pymatgen
data_H28C41(N4O)2
_symmetry_space_group_name_H-M   'P 1'
_cell_length_a   28.72500000
_cell_length_b   54.68220000
_cell_length_c   54.68220000
_cell_angle_alpha   90.00000000
_cell_angle_beta   90.02560000
_cell_angle_gamma   90.00000000
_symmetry_Int_Tables_number   1
_chemical_formula_structural   H28C41(N4O)2
_chemical_formula_sum   'H224 C328 N64 O16'
_cell_volume   85891.84901076
_cell_formula_units_Z   8
loop_
 _symmetry_equiv_pos_site_id
 _symmetry_equiv_pos_as_xyz
  1  'x, y, z'
loop_
 _atom_site_type_symbol
 _atom_site_label
 _atom_site_symmetry_multiplicity
 _atom_site_fract_x
 _atom_site_fract_y
 _atom_site_fract_z
 _atom_site_occupancy
  H  26  1  0.89088300  0.18280100  0.23538100  1
  H  27  1  0.95347300  0.16272700  0.21537400  1
  H  28  1  0.90314400  0.24203800  0.18658700  1
  H  29  1  0.96540300  0.22188600  0.16636900  1
  H  30  1  0.05707100  0.21746200  0.16017800  1
  H  31  1  0.12045800  0.23709700  0.17991300  1
  H  32  1  0.10844100  0.18825500  0.23915600  1
  H  33  1  0.04538300  0.16842600  0.21933200  1
  H  34  1  0.07802900  0.14314700  0.17996400  1
  H  35  1  0.07711200  0.09992600  0.18098900  1
  H  36  1  0.93181900  0.10031000  0.17043600  1
  H  37  1  0.93259600  0.14376800  0.16959300  1
  H  38  1  0.93156500  0.18279700  0.14118100  1
  H  39  1  0.07683200  0.17174300  0.14109300  1
  H  40  1  0.07691400  0.17291700  0.09763900  1
  H  45  1  0.93180500  0.18428100  0.09801700  1
  H  71  1  0.89113000  0.82732200  0.76925300  1
  H  72  1  0.95376900  0.84739200  0.78925400  1
  H  73  1  0.90324800  0.76816700  0.81816300  1
  H  74  1  0.96555600  0.78831800  0.83837100  1
  H  75  1  0.05720300  0.79268400  0.84450000  1
  H  76  1  0.12053200  0.77301500  0.82477200  1
  H  77  1  0.10864800  0.82193800  0.76558000  1
  H  78  1  0.04565000  0.84178900  0.78539600  1
  H  79  1  0.07825500  0.86705200  0.82481800  1
  H  80  1  0.07732300  0.91027400  0.82381800  1
  H  81  1  0.93199700  0.90986300  0.83416600  1
  H  82  1  0.93279700  0.86640800  0.83499100  1
  H  83  1  0.93177000  0.82750800  0.86346100  1
  H  84  1  0.07708300  0.83838000  0.86363300  1
  H  85  1  0.07713300  0.83722800  0.90709000  1
  H  90  1  0.93196500  0.82606400  0.90661800  1
  H  116  1  0.89122400  0.77192200  0.18021500  1
  H  117  1  0.95380700  0.79192300  0.16012300  1
  H  118  1  0.90311200  0.82099400  0.23924900  1
  H  119  1  0.96536500  0.84119300  0.21908200  1
  H  120  1  0.05697000  0.84712900  0.21483800  1
  H  121  1  0.12032500  0.82738800  0.23449900  1
  H  122  1  0.10871600  0.76831700  0.18541500  1
  H  123  1  0.04568500  0.78814100  0.16557300  1
  H  124  1  0.07817600  0.82769300  0.14042900  1
  H  125  1  0.07728800  0.82670400  0.09720600  1
  H  126  1  0.93188200  0.83677300  0.09755700  1
  H  127  1  0.93264800  0.83759000  0.14101300  1
  H  128  1  0.93167600  0.86620500  0.17976800  1
  H  129  1  0.07705200  0.86633800  0.16921300  1
  H  130  1  0.07710100  0.90979300  0.17034900  1
  H  135  1  0.93185400  0.90936000  0.18118500  1
  H  161  1  0.89140500  0.23824400  0.82449000  1
  H  162  1  0.95404000  0.21825700  0.84457900  1
  H  163  1  0.90320000  0.18916400  0.76546100  1
  H  164  1  0.96551500  0.16897800  0.78562500  1
  H  165  1  0.05717900  0.16302400  0.78991400  1
  H  166  1  0.12051800  0.18276200  0.77026000  1
  H  167  1  0.10889200  0.24187000  0.81929700  1
  H  168  1  0.04588000  0.22205000  0.83913400  1
  H  169  1  0.07839900  0.18256100  0.86431400  1
  H  170  1  0.07749200  0.18360800  0.90754400  1
  H  171  1  0.93210100  0.17345800  0.90712200  1
  H  172  1  0.93287400  0.17258600  0.86366800  1
  H  173  1  0.93187800  0.14398500  0.82490700  1
  H  174  1  0.07726100  0.14385000  0.83554800  1
  H  175  1  0.07730500  0.10039200  0.83440500  1
  H  180  1  0.93205900  0.10082900  0.82347900  1
  H  206  1  0.39518500  0.68508000  0.73648400  1
  H  207  1  0.45804400  0.66504100  0.71701700  1
  H  208  1  0.39780000  0.74016000  0.68259100  1
  H  209  1  0.46087700  0.71997600  0.66295800  1
  H  210  1  0.55196200  0.71927800  0.66338400  1
  H  211  1  0.61429400  0.73900600  0.68377000  1
  H  212  1  0.61263700  0.68458500  0.73827200  1
  H  213  1  0.54972700  0.66486500  0.71794900  1
  H  214  1  0.57779300  0.64261800  0.67543200  1
  H  215  1  0.57654700  0.59928400  0.67560400  1
  H  216  1  0.43000500  0.60027900  0.67365100  1
  H  217  1  0.43111200  0.64372300  0.67345400  1
  H  218  1  0.43268600  0.67764300  0.64072700  1
  H  219  1  0.57946100  0.67609700  0.64163200  1
  H  220  1  0.58032700  0.67712500  0.59818400  1
  H  225  1  0.43366800  0.67883300  0.59746400  1
  H  251  1  0.39573900  0.32487000  0.26799500  1
  H  252  1  0.45858000  0.34490600  0.28751200  1
  H  253  1  0.39733700  0.27020100  0.32231500  1
  H  254  1  0.46042500  0.29036500  0.34197600  1
  H  255  1  0.55150600  0.29072300  0.34110300  1
  H  256  1  0.61381700  0.27098900  0.32072500  1
  H  257  1  0.61313500  0.32585700  0.26666900  1
  H  258  1  0.55024900  0.34557500  0.28697400  1
  H  259  1  0.57775500  0.36754200  0.32978800  1
  H  260  1  0.57655000  0.41087800  0.32965700  1
  H  261  1  0.42997700  0.40991200  0.33066500  1
  H  262  1  0.43104600  0.36647000  0.33083000  1
  H  263  1  0.43277600  0.33296600  0.36395700  1
  H  264  1  0.57956500  0.33362900  0.36316400  1
  H  265  1  0.58036600  0.33259300  0.40661000  1
  H  270  1  0.43367800  0.33178200  0.40721800  1
  H  296  1  0.39549200  0.27086100  0.68244600  1
  H  297  1  0.45832900  0.29035600  0.66241600  1
  H  298  1  0.39773700  0.32490600  0.73738200  1
  H  299  1  0.46080400  0.34456000  0.71721500  1
  H  300  1  0.55186100  0.34400400  0.71665300  1
  H  301  1  0.61420700  0.32364500  0.73639600  1
  H  302  1  0.61294000  0.26929400  0.68181900  1
  H  303  1  0.55001200  0.28958600  0.66209000  1
  H  304  1  0.57785200  0.33220300  0.63993800  1
  H  305  1  0.57660900  0.33204800  0.59660300  1
  H  306  1  0.43005100  0.33362900  0.59756400  1
  H  307  1  0.43115400  0.33380900  0.64101000  1
  H  308  1  0.43275200  0.36667500  0.67477100  1
  H  309  1  0.57954800  0.36587200  0.67358700  1
  H  310  1  0.58032700  0.40932300  0.67463500  1
  H  315  1  0.43365400  0.40993800  0.67597400  1
  H  341  1  0.39549200  0.73931700  0.32229400  1
  H  342  1  0.45834300  0.71982100  0.34233900  1
  H  343  1  0.39778600  0.68531200  0.26732100  1
  H  344  1  0.46087000  0.66566100  0.28750300  1
  H  345  1  0.55194800  0.66616500  0.28812800  1
  H  346  1  0.61426000  0.68654100  0.26839800  1
  H  347  1  0.61290900  0.74092600  0.32294000  1
  H  348  1  0.55001600  0.72061600  0.34265500  1
  H  349  1  0.57790100  0.67803000  0.36484700  1
  H  350  1  0.57664100  0.67819100  0.40818200  1
  H  351  1  0.43009200  0.67649800  0.40714000  1
  H  352  1  0.43121000  0.67630900  0.36369700  1
  H  353  1  0.43280100  0.64348900  0.32988000  1
  H  354  1  0.57958200  0.64433000  0.33125300  1
  H  355  1  0.58041100  0.60088300  0.33022200  1
  H  360  1  0.43374400  0.60022600  0.32868900  1
  H  367  1  0.08197700  0.01376200  0.18898400  1
  H  370  1  0.92615200  0.97801400  0.13069900  1
  H  371  1  0.90686500  0.00879300  0.12839000  1
  H  372  1  0.86697000  0.98509500  0.13566000  1
  H  375  1  0.94356200  0.95109500  0.17772800  1
  H  377  1  0.06291300  0.05788700  0.18371800  1
  H  384  1  0.08213300  0.99642300  0.81573200  1
  H  387  1  0.92640900  0.03225200  0.87398200  1
  H  388  1  0.90713300  0.00147700  0.87635300  1
  H  389  1  0.86722000  0.02515700  0.86903600  1
  H  392  1  0.94375300  0.05909700  0.82697800  1
  H  394  1  0.06307600  0.95230400  0.82099600  1
  H  401  1  0.08210100  0.81852800  0.01103000  1
  H  404  1  0.92591800  0.87665200  0.97512800  1
  H  405  1  0.90642300  0.87910500  0.00584200  1
  H  406  1  0.86675000  0.87154700  0.98210800  1
  H  409  1  0.94362800  0.82978700  0.94835800  1
  H  411  1  0.06305100  0.82375800  0.05516500  1
  H  418  1  0.08218500  0.19156900  0.99380900  1
  H  421  1  0.92618000  0.13325300  0.02847100  1
  H  422  1  0.90709900  0.13157400  0.99761400  1
  H  423  1  0.86703200  0.13827000  0.02138900  1
  H  426  1  0.94345000  0.17986300  0.05628900  1
  H  428  1  0.06320300  0.18656700  0.94960900  1
  H  435  1  0.57432900  0.51403000  0.69691900  1
  H  438  1  0.35088300  0.48975700  0.65144600  1
  H  439  1  0.37221600  0.51591700  0.66706300  1
  H  440  1  0.38085000  0.48620000  0.67939400  1
  H  443  1  0.45026300  0.45040400  0.66348400  1
  H  445  1  0.55894200  0.55812500  0.68779300  1
  H  452  1  0.57454800  0.49612300  0.30802500  1
  H  455  1  0.35089700  0.52045100  0.35308700  1
  H  456  1  0.37228900  0.49428300  0.33751500  1
  H  457  1  0.38099900  0.52399700  0.32519100  1
  H  460  1  0.45036000  0.55978000  0.34122900  1
  H  462  1  0.55915400  0.45203000  0.31722500  1
  H  469  1  0.57449600  0.31068200  0.51134300  1
  H  472  1  0.35090000  0.35587400  0.48698500  1
  H  473  1  0.37225100  0.34023100  0.51312600  1
  H  474  1  0.38099900  0.32798000  0.48338700  1
  H  477  1  0.45042000  0.34411200  0.44769200  1
  H  479  1  0.55908800  0.31980200  0.55544000  1
  H  486  1  0.57463200  0.69939700  0.49344100  1
  H  489  1  0.35070200  0.65416700  0.51745000  1
  H  490  1  0.37207000  0.66949000  0.49113000  1
  H  491  1  0.38028600  0.68227700  0.52069200  1
  H  494  1  0.45023900  0.66629500  0.55702000  1
  H  496  1  0.55908100  0.69041300  0.44933800  1
  H  503  1  0.76458200  0.27904300  0.21601600  1
  H  506  1  0.71490400  0.19987100  0.31329200  1
  H  507  1  0.73543600  0.19323800  0.28340500  1
  H  508  1  0.68535100  0.21182200  0.28763600  1
  H  511  1  0.68764500  0.26483600  0.30293100  1
  H  513  1  0.83024200  0.25137100  0.20478200  1
  H  520  1  0.76445300  0.73128000  0.78882700  1
  H  523  1  0.71537700  0.81009500  0.69115500  1
  H  524  1  0.73583000  0.81682900  0.72104300  1
  H  525  1  0.68569200  0.79827600  0.71681400  1
  H  528  1  0.68799300  0.74512700  0.70171700  1
  H  530  1  0.83015900  0.75895100  0.80004000  1
  H  537  1  0.76449800  0.79153300  0.27622000  1
  H  540  1  0.71524800  0.69369700  0.19747900  1
  H  541  1  0.73564500  0.72354400  0.19049000  1
  H  542  1  0.68565700  0.71945100  0.20915200  1
  H  545  1  0.68786100  0.70450000  0.26216600  1
  H  547  1  0.83027700  0.80273400  0.24860700  1
  H  554  1  0.76419900  0.21856500  0.72864500  1
  H  557  1  0.71622600  0.31600600  0.80769600  1
  H  558  1  0.73709300  0.28613300  0.81411800  1
  H  559  1  0.68656900  0.29035800  0.79584900  1
  H  562  1  0.68764900  0.30562400  0.74280900  1
  H  564  1  0.83035400  0.20743900  0.75608800  1
  H  571  1  0.23611700  0.72631700  0.22142000  1
  H  574  1  0.25339900  0.77046800  0.31793600  1
  H  575  1  0.21588500  0.79405900  0.30741000  1
  H  576  1  0.26734600  0.80132400  0.32385500  1
  H  579  1  0.34182100  0.75594800  0.29544100  1
  H  581  1  0.17358700  0.75502400  0.20792200  1
  H  588  1  0.23616600  0.28389700  0.78326600  1
  H  591  1  0.25331400  0.23963900  0.68680200  1
  H  592  1  0.21590700  0.21602600  0.69737100  1
  H  593  1  0.26734300  0.20878600  0.68091700  1
  H  596  1  0.34177000  0.25425800  0.70925800  1
  H  598  1  0.17370100  0.25517100  0.79678600  1
  H  605  1  0.23599900  0.22416600  0.28112100  1
  H  608  1  0.25326400  0.32066200  0.23694800  1
  H  609  1  0.21577700  0.31013400  0.21334100  1
  H  610  1  0.26723500  0.32657200  0.20609500  1
  H  613  1  0.34168500  0.29816800  0.25150900  1
  H  615  1  0.17345800  0.21068100  0.25240400  1
  H  622  1  0.23621300  0.78610600  0.72367500  1
  H  625  1  0.25323200  0.68933900  0.76781900  1
  H  626  1  0.21601200  0.69986200  0.79153100  1
  H  627  1  0.26765800  0.68351500  0.79865300  1
  H  630  1  0.34209700  0.71216400  0.75328500  1
  H  632  1  0.17350100  0.79944800  0.75230500  1
  C  1  1  0.00462700  0.17920000  0.09342300  1
  C  2  1  0.04614200  0.17561000  0.10667900  1
  C  3  1  0.04595600  0.17506800  0.13242300  1
  C  4  1  0.00471700  0.17900100  0.14629300  1
  C  5  1  0.96299400  0.18163300  0.13255600  1
  C  6  1  0.96288600  0.18209900  0.10681000  1
  C  7  1  0.00501700  0.17656100  0.17423500  1
  C  8  1  0.00489500  0.14860800  0.17661100  1
  C  9  1  0.96337000  0.13494300  0.17275800  1
  C  10  1  0.96278500  0.10919500  0.17307000  1
  C  11  1  0.00409100  0.09573100  0.17652600  1
  C  12  1  0.04612000  0.10890300  0.17926500  1
  C  13  1  0.04643500  0.13466200  0.17895900  1
  C  14  1  0.04632700  0.18935400  0.18656300  1
  C  15  1  0.96411200  0.18905600  0.18720800  1
  C  16  1  0.94251000  0.17904700  0.20836000  1
  C  17  1  0.90573400  0.19102400  0.22048700  1
  C  18  1  0.88944800  0.21396500  0.21242900  1
  C  19  1  0.91252600  0.22500400  0.19244500  1
  C  20  1  0.94946200  0.21298000  0.18049800  1
  C  21  1  0.06814900  0.21039900  0.17645700  1
  C  22  1  0.10540700  0.22231400  0.18824100  1
  C  23  1  0.12176400  0.21427600  0.21117900  1
  C  24  1  0.09860200  0.19434800  0.22228000  1
  C  25  1  0.06130000  0.18254700  0.21040300  1
  C  46  1  0.00482200  0.83101200  0.91126300  1
  C  47  1  0.04635300  0.83457100  0.89803000  1
  C  48  1  0.04619000  0.83509000  0.87228500  1
  C  49  1  0.00494400  0.83119700  0.85839200  1
  C  50  1  0.96320000  0.82863000  0.87210500  1
  C  51  1  0.96307400  0.82817200  0.89784900  1
  C  52  1  0.00523900  0.83362600  0.83045000  1
  C  53  1  0.00511800  0.86157600  0.82805200  1
  C  54  1  0.96357900  0.87523500  0.83186600  1
  C  55  1  0.96297300  0.90098400  0.83156200  1
  C  56  1  0.00428200  0.91445600  0.82816700  1
  C  57  1  0.04633000  0.90129300  0.82549700  1
  C  58  1  0.04665700  0.87553300  0.82579500  1
  C  59  1  0.04655000  0.82083400  0.81814900  1
  C  60  1  0.96433100  0.82111300  0.81747700  1
  C  61  1  0.94276400  0.83109300  0.79629000  1
  C  62  1  0.90596000  0.81912000  0.78417100  1
  C  63  1  0.88959500  0.79621300  0.79227800  1
  C  64  1  0.91267900  0.78518400  0.81227500  1
  C  65  1  0.94964000  0.79721000  0.82421800  1
  C  66  1  0.06830000  0.79975200  0.82823400  1
  C  67  1  0.10552300  0.78782100  0.81645300  1
  C  68  1  0.12189300  0.79586700  0.79352800  1
  C  69  1  0.09879300  0.81583000  0.78244400  1
  C  70  1  0.06153300  0.82764900  0.79432200  1
  C  91  1  0.00475200  0.91399000  0.17641700  1
  C  92  1  0.04630600  0.90074400  0.17295600  1
  C  93  1  0.04613800  0.87499700  0.17243800  1
  C  94  1  0.00487400  0.86111200  0.17626500  1
  C  95  1  0.96311300  0.87484200  0.17870600  1
  C  96  1  0.96298400  0.90058500  0.17916300  1
  C  97  1  0.00514900  0.83317400  0.17382400  1
  C  98  1  0.00500600  0.83077800  0.14587700  1
  C  99  1  0.96345400  0.83452400  0.13219800  1
  C  100  1  0.96287200  0.83422900  0.10645000  1
  C  101  1  0.00421600  0.83091700  0.09299500  1
  C  102  1  0.04627300  0.82830900  0.10617600  1
  C  103  1  0.04657400  0.82860400  0.13193400  1
  C  104  1  0.04645400  0.82084500  0.18660900  1
  C  105  1  0.96423700  0.82022300  0.18633300  1
  C  106  1  0.94276800  0.79898700  0.17640400  1
  C  107  1  0.90599200  0.78687200  0.18838900  1
  C  108  1  0.88959800  0.79501200  0.21127400  1
  C  109  1  0.91257800  0.81506800  0.22225300  1
  C  110  1  0.94950100  0.82700900  0.21021400  1
  C  111  1  0.06812300  0.83088400  0.20773800  1
  C  112  1  0.10536200  0.81909800  0.21966500  1
  C  113  1  0.12182500  0.79620800  0.21156500  1
  C  114  1  0.09879300  0.78515700  0.19156100  1
  C  115  1  0.06151400  0.79704200  0.17974700  1
  C  136  1  0.00495100  0.09619900  0.82830800  1
  C  137  1  0.04650600  0.10944300  0.83180100  1
  C  138  1  0.04634800  0.13518900  0.83230900  1
  C  139  1  0.00507600  0.14906900  0.82847400  1
  C  140  1  0.96331100  0.13534600  0.82599000  1
  C  141  1  0.96318600  0.10960300  0.82552900  1
  C  142  1  0.00536100  0.17701100  0.83089300  1
  C  143  1  0.00523600  0.17940700  0.85884200  1
  C  144  1  0.96367600  0.17567500  0.87249700  1
  C  145  1  0.96309200  0.17600200  0.89824200  1
  C  146  1  0.00443200  0.17934800  0.91171300  1
  C  147  1  0.04649100  0.18195200  0.89855300  1
  C  148  1  0.04680000  0.18164300  0.87279600  1
  C  149  1  0.04664400  0.18934100  0.81810700  1
  C  150  1  0.96444900  0.18996300  0.81836400  1
  C  151  1  0.94298000  0.21118900  0.82830000  1
  C  152  1  0.90617600  0.22329900  0.81631500  1
  C  153  1  0.88974400  0.21515200  0.79343200  1
  C  154  1  0.91271400  0.19510000  0.78245000  1
  C  155  1  0.94966800  0.18316600  0.79448700  1
  C  156  1  0.06832700  0.17927500  0.79700500  1
  C  157  1  0.10555200  0.19106200  0.78508300  1
  C  158  1  0.12200000  0.21396200  0.79316900  1
  C  159  1  0.09896900  0.22502600  0.81315800  1
  C  160  1  0.06169600  0.21314800  0.82496500  1
  C  181  1  0.50721300  0.67829000  0.59349100  1
  C  182  1  0.54895100  0.67780400  0.60702300  1
  C  183  1  0.54825100  0.67742500  0.63277300  1
  C  184  1  0.50602600  0.67864800  0.64630900  1
  C  185  1  0.46434800  0.67827400  0.63226700  1
  C  186  1  0.46475600  0.67855700  0.60653500  1
  C  187  1  0.50530200  0.67621300  0.67422800  1
  C  188  1  0.50450500  0.64828000  0.67656300  1
  C  189  1  0.46223500  0.63481000  0.67492200  1
  C  190  1  0.46140000  0.60906100  0.67478800  1
  C  191  1  0.50301800  0.59546400  0.67577300  1
  C  192  1  0.54555600  0.60843400  0.67611700  1
  C  193  1  0.54610600  0.63418200  0.67613000  1
  C  194  1  0.54632600  0.68860200  0.68715000  1
  C  195  1  0.46432700  0.68914000  0.68664500  1
  C  196  1  0.44532300  0.68055900  0.70905200  1
  C  197  1  0.40829300  0.69260900  0.72085300  1
  C  198  1  0.38952100  0.71452100  0.71126800  1
  C  199  1  0.40979300  0.72408900  0.68983400  1
  C  200  1  0.44692800  0.71196500  0.67815500  1
  C  201  1  0.56503800  0.71115100  0.67873900  1
  C  202  1  0.60201200  0.72296600  0.69083600  1
  C  203  1  0.62121900  0.71314000  0.71252700  1
  C  204  1  0.60069600  0.69180800  0.72218400  1
  C  205  1  0.56371500  0.68006800  0.70996300  1
  C  226  1  0.50723100  0.33186700  0.41125300  1
  C  227  1  0.54898500  0.33209900  0.39774800  1
  C  228  1  0.54832000  0.33247600  0.37199500  1
  C  229  1  0.50609200  0.33150600  0.35842500  1
  C  230  1  0.46441400  0.33215200  0.37244200  1
  C  231  1  0.46478300  0.33186300  0.39817500  1
  C  232  1  0.50533700  0.33396000  0.33050800  1
  C  233  1  0.50449100  0.36189300  0.32817900  1
  C  234  1  0.46220700  0.37537400  0.32957000  1
  C  235  1  0.46138900  0.40112300  0.32973100  1
  C  236  1  0.50303600  0.41471300  0.32903700  1
  C  237  1  0.54556700  0.40173600  0.32891900  1
  C  238  1  0.54608900  0.37598900  0.32890000  1
  C  239  1  0.54636700  0.32160700  0.31757700  1
  C  240  1  0.46435200  0.32102900  0.31808300  1
  C  241  1  0.44564300  0.32947500  0.29555000  1
  C  242  1  0.40859900  0.31743400  0.28373100  1
  C  243  1  0.38951800  0.29565200  0.29343200  1
  C  244  1  0.40953500  0.28618800  0.31499000  1
  C  245  1  0.44666000  0.29831300  0.32669400  1
  C  246  1  0.56478000  0.29893400  0.32584700  1
  C  247  1  0.60175800  0.28712300  0.31376200  1
  C  248  1  0.62122900  0.29707100  0.29220100  1
  C  249  1  0.60099600  0.31853700  0.28266800  1
  C  250  1  0.56403100  0.33027700  0.29488300  1
  C  271  1  0.50719900  0.41396300  0.67561300  1
  C  272  1  0.54896100  0.40045900  0.67521900  1
  C  273  1  0.54831300  0.37470900  0.67483800  1
  C  274  1  0.50609900  0.36114800  0.67594500  1
  C  275  1  0.46439700  0.37515700  0.67547800  1
  C  276  1  0.46475900  0.40088900  0.67577500  1
  C  277  1  0.50538600  0.33322700  0.67351500  1
  C  278  1  0.50457500  0.33089200  0.64558100  1
  C  279  1  0.46229100  0.33243200  0.63210400  1
  C  280  1  0.46145500  0.33257600  0.60635500  1
  C  281  1  0.50308100  0.33172600  0.59276600  1
  C  282  1  0.54562200  0.33146600  0.60574400  1
  C  283  1  0.54617200  0.33142800  0.63149200  1
  C  284  1  0.54642000  0.32031600  0.68590700  1
  C  285  1  0.46442100  0.32079900  0.68644200  1
  C  286  1  0.44553900  0.29834000  0.67790800  1
  C  287  1  0.40850100  0.28653200  0.68994400  1
  C  288  1  0.38961500  0.29616000  0.71180200  1
  C  289  1  0.40980300  0.31763500  0.72134300  1
  C  290  1  0.44692100  0.32933200  0.70922400  1
  C  291  1  0.56502400  0.32868800  0.70850000  1
  C  292  1  0.60200500  0.31660600  0.72032600  1
  C  293  1  0.62133700  0.29497000  0.71045700  1
  C  294  1  0.60091600  0.28534900  0.68907400  1
  C  295  1  0.56392700  0.29755200  0.67732700  1
  C  316  1  0.50729300  0.59621900  0.32914400  1
  C  317  1  0.54904100  0.60973600  0.32958000  1
  C  318  1  0.54836200  0.63548600  0.32995800  1
  C  319  1  0.50613800  0.64903900  0.32878900  1
  C  320  1  0.46445600  0.63501600  0.32921400  1
  C  321  1  0.46484300  0.60928200  0.32892500  1
  C  322  1  0.50543400  0.67695900  0.33123000  1
  C  323  1  0.50462300  0.67929000  0.35916400  1
  C  324  1  0.46234000  0.67772100  0.37261900  1
  C  325  1  0.46149700  0.67757100  0.39836800  1
  C  326  1  0.50311200  0.67847700  0.41198000  1
  C  327  1  0.54565700  0.67876000  0.39902400  1
  C  328  1  0.54621400  0.67878400  0.37327500  1
  C  329  1  0.54646100  0.68987300  0.31885300  1
  C  330  1  0.46445600  0.68939400  0.31830200  1
  C  331  1  0.44555300  0.71184200  0.32684200  1
  C  332  1  0.40851200  0.72365400  0.31479200  1
  C  333  1  0.38963600  0.71403800  0.29291800  1
  C  334  1  0.40983800  0.69257200  0.28337300  1
  C  335  1  0.44698400  0.68088300  0.29549700  1
  C  336  1  0.56508300  0.68149400  0.29627600  1
  C  337  1  0.60205100  0.69358400  0.28446200  1
  C  338  1  0.62133300  0.71523800  0.29432000  1
  C  339  1  0.60090900  0.72486300  0.31569000  1
  C  340  1  0.56394100  0.71264800  0.32742900  1
  C  361  1  0.98901300  0.98019400  0.17691100  1
  C  363  1  0.04824500  0.01035500  0.18410800  1
  C  364  1  0.01688100  0.02949400  0.17872600  1
  C  366  1  0.95719400  0.99934900  0.17132100  1
  C  368  1  0.91152000  0.99525800  0.16418900  1
  C  369  1  0.90253500  0.99164800  0.13837300  1
  C  374  1  0.97704800  0.95553500  0.17713200  1
  C  376  1  0.02998700  0.05389500  0.17980800  1
  C  378  1  0.98919800  0.02999600  0.82780500  1
  C  380  1  0.04841600  0.99983300  0.82062000  1
  C  381  1  0.01705600  0.98069500  0.82599800  1
  C  383  1  0.95738600  0.01084400  0.83339900  1
  C  385  1  0.91172200  0.01494000  0.84052700  1
  C  386  1  0.90278500  0.01860300  0.86633600  1
  C  391  1  0.97724000  0.05465600  0.82757500  1
  C  393  1  0.03016100  0.95629400  0.82491500  1
  C  395  1  0.98909700  0.83057000  0.97746600  1
  C  397  1  0.04836600  0.82339600  0.00762400  1
  C  398  1  0.01700500  0.82873900  0.02676600  1
  C  400  1  0.95728800  0.83612400  0.99662500  1
  C  402  1  0.91165200  0.84321700  0.99256200  1
  C  403  1  0.90230100  0.86898600  0.98876000  1
  C  408  1  0.97711400  0.83034300  0.95280400  1
  C  410  1  0.03012600  0.82766200  0.05116600  1
  C  412  1  0.98898900  0.17955800  0.02720600  1
  C  414  1  0.04840500  0.18675400  0.99714900  1
  C  415  1  0.01707700  0.18153000  0.97794700  1
  C  417  1  0.95722600  0.17411800  0.00797700  1
  C  419  1  0.91146400  0.16714100  0.01192800  1
  C  420  1  0.90261800  0.14119500  0.01495800  1
  C  425  1  0.97695400  0.17964600  0.05186100  1
  C  427  1  0.03027400  0.18264600  0.95356600  1
  C  429  1  0.49183300  0.47999200  0.67192600  1
  C  431  1  0.54439000  0.51046000  0.68746800  1
  C  432  1  0.51642500  0.52944100  0.67796700  1
  C  434  1  0.46363100  0.49902500  0.66214900  1
  C  436  1  0.42300400  0.49485200  0.64917900  1
  C  437  1  0.37954400  0.49685300  0.66251600  1
  C  442  1  0.48123200  0.45522100  0.66998000  1
  C  444  1  0.52807700  0.55389500  0.68070200  1
  C  446  1  0.49194800  0.53018900  0.33285100  1
  C  448  1  0.54456400  0.49970400  0.31741900  1
  C  449  1  0.51654700  0.48073000  0.32688200  1
  C  451  1  0.46369400  0.51116100  0.34258800  1
  C  453  1  0.42300800  0.51534500  0.35548500  1
  C  454  1  0.37960700  0.51335000  0.34206900  1
  C  459  1  0.48134400  0.55496100  0.33477000  1
  C  461  1  0.52820200  0.45627300  0.32418900  1
  C  463  1  0.49192400  0.33559000  0.47728700  1
  C  465  1  0.54451500  0.32008900  0.50776600  1
  C  466  1  0.51651200  0.32955000  0.52674400  1
  C  468  1  0.46368000  0.34531900  0.49631800  1
  C  470  1  0.42300100  0.35824100  0.49214200  1
  C  471  1  0.37959600  0.34483100  0.49407600  1
  C  476  1  0.48134000  0.33755800  0.45251200  1
  C  478  1  0.52817800  0.32682800  0.55120300  1
  C  480  1  0.49190600  0.67462900  0.52745300  1
  C  482  1  0.54459500  0.69004000  0.49700000  1
  C  483  1  0.51651900  0.68064200  0.47801000  1
  C  485  1  0.46361400  0.66494000  0.50840900  1
  C  487  1  0.42281000  0.65211500  0.51258000  1
  C  488  1  0.37925500  0.66524700  0.51027900  1
  C  493  1  0.48127100  0.67270700  0.55221900  1
  C  495  1  0.52818800  0.68336300  0.45355800  1
  C  497  1  0.72208900  0.26306200  0.26991900  1
  C  499  1  0.76191800  0.26902000  0.23172600  1
  C  500  1  0.79203800  0.24918900  0.23656600  1
  C  502  1  0.75224400  0.24301000  0.27492600  1
  C  504  1  0.74909000  0.22880400  0.29585300  1
  C  505  1  0.71969000  0.20730700  0.29491600  1
  C  510  1  0.68761700  0.27118900  0.28591400  1
  C  512  1  0.82684400  0.24220100  0.22038100  1
  C  514  1  0.72218600  0.74708400  0.73480100  1
  C  516  1  0.76186600  0.74124500  0.77307500  1
  C  517  1  0.79208700  0.76101700  0.76818700  1
  C  519  1  0.75243900  0.76707900  0.72974800  1
  C  521  1  0.74940300  0.78120300  0.70875700  1
  C  522  1  0.72007700  0.80272900  0.70956800  1
  C  527  1  0.68776300  0.73891800  0.71878600  1
  C  529  1  0.82687900  0.76803200  0.78438100  1
  C  531  1  0.72219700  0.73754500  0.26033600  1
  C  533  1  0.76190800  0.77579300  0.26623800  1
  C  534  1  0.79214600  0.77091200  0.24647400  1
  C  536  1  0.75247000  0.73250300  0.24035000  1
  C  538  1  0.74947300  0.71156200  0.22621500  1
  C  539  1  0.72001100  0.71216600  0.20470000  1
  C  544  1  0.68774600  0.72153600  0.26846600  1
  C  546  1  0.82694900  0.78710000  0.23948600  1
  C  548  1  0.72217900  0.27262200  0.74448600  1
  C  550  1  0.76174400  0.23433400  0.73859300  1
  C  551  1  0.79219200  0.23924800  0.75827100  1
  C  553  1  0.75264100  0.27768800  0.76440100  1
  C  555  1  0.74992900  0.29871500  0.77846000  1
  C  556  1  0.72098500  0.29766200  0.80016800  1
  C  561  1  0.68766200  0.28862800  0.73640400  1
  C  563  1  0.82703200  0.22306200  0.76522500  1
  C  565  1  0.29406800  0.75045400  0.26783100  1
  C  567  1  0.24413400  0.73908500  0.23440200  1
  C  568  1  0.21864300  0.76105700  0.23658500  1
  C  570  1  0.26854100  0.77265900  0.27013300  1
  C  572  1  0.27812900  0.79027500  0.28762300  1
  C  573  1  0.25220900  0.78892700  0.31034500  1
  C  578  1  0.33163800  0.74415800  0.28272500  1
  C  580  1  0.18160500  0.76665500  0.22123700  1
  C  582  1  0.29409400  0.25973900  0.73688600  1
  C  584  1  0.24418900  0.27111700  0.77029900  1
  C  585  1  0.21873400  0.24913200  0.76813600  1
  C  587  1  0.26860200  0.23752100  0.73460200  1
  C  589  1  0.27819600  0.21989200  0.71713000  1
  C  590  1  0.25220500  0.22118700  0.69441800  1
  C  595  1  0.33162600  0.26604100  0.72198500  1
  C  597  1  0.18171900  0.24353300  0.78348000  1
  C  599  1  0.29395200  0.27056000  0.25699300  1
  C  601  1  0.24402100  0.23714100  0.26835100  1
  C  602  1  0.21854200  0.23931700  0.24636700  1
  C  604  1  0.26843700  0.27285800  0.23477700  1
  C  606  1  0.27802800  0.29034300  0.21716100  1
  C  607  1  0.25209500  0.31306500  0.21849000  1
  C  612  1  0.33151700  0.28545300  0.26329900  1
  C  614  1  0.18150300  0.22397600  0.24075900  1
  C  616  1  0.29412000  0.73965000  0.74774000  1
  C  618  1  0.24419800  0.77308900  0.73641600  1
  C  619  1  0.21863600  0.77083200  0.75835300  1
  C  621  1  0.26854400  0.73728000  0.76991500  1
  C  623  1  0.27803800  0.71968600  0.78745700  1
  C  624  1  0.25226400  0.69695600  0.78626900  1
  C  629  1  0.33172300  0.72479000  0.74144300  1
  C  631  1  0.18157100  0.78615300  0.76395100  1
  N  41  1  0.85423200  0.22408000  0.22479800  1
  N  42  1  0.15778000  0.22633300  0.22090800  1
  N  43  1  0.00761700  0.17924600  0.06903700  1
  N  44  1  0.00067900  0.07136600  0.17631800  1
  N  86  1  0.85437800  0.78608900  0.77990600  1
  N  87  1  0.15789400  0.78380500  0.78380700  1
  N  88  1  0.00778600  0.83101200  0.93565300  1
  N  89  1  0.00085700  0.93882300  0.82839100  1
  N  131  1  0.85438500  0.78265100  0.22140000  1
  N  132  1  0.15784600  0.78648600  0.22362000  1
  N  133  1  0.00771900  0.93838000  0.17642500  1
  N  134  1  0.00080800  0.83112900  0.06863000  1
  N  176  1  0.85450000  0.22750200  0.78331300  1
  N  177  1  0.15799300  0.22368700  0.78111400  1
  N  178  1  0.00791500  0.07180900  0.82829300  1
  N  179  1  0.00101000  0.17914800  0.93607100  1
  N  221  1  0.35364700  0.72674400  0.72098500  1
  N  222  1  0.65642800  0.72323300  0.72497100  1
  N  223  1  0.51038800  0.67859900  0.56913300  1
  N  224  1  0.49969700  0.57114400  0.67483000  1
  N  266  1  0.35362900  0.28343200  0.28370400  1
  N  267  1  0.65646000  0.28699300  0.27977300  1
  N  268  1  0.51037100  0.33153900  0.43561400  1
  N  269  1  0.49972500  0.43903500  0.32995400  1
  N  311  1  0.35375100  0.28643500  0.72402400  1
  N  312  1  0.65656400  0.28253200  0.72054600  1
  N  313  1  0.51032900  0.43832300  0.67593700  1
  N  314  1  0.49976000  0.33264900  0.56844300  1
  N  356  1  0.35374800  0.72376000  0.28069300  1
  N  357  1  0.65654000  0.72767900  0.28423200  1
  N  358  1  0.51044400  0.57185900  0.32883400  1
  N  359  1  0.49978400  0.67753700  0.43629900  1
  N  362  1  0.03317700  0.98685600  0.18308000  1
  N  365  1  0.97280100  0.02287100  0.17247600  1
  N  379  1  0.03335100  0.02333100  0.82163700  1
  N  382  1  0.97298500  0.98732100  0.83224700  1
  N  396  1  0.03327300  0.82442200  0.98412700  1
  N  399  1  0.97290900  0.83496100  0.02014500  1
  N  413  1  0.03322500  0.18565600  0.02062300  1
  N  416  1  0.97292300  0.17536100  0.98448400  1
  N  430  1  0.53102200  0.48688800  0.68416400  1
  N  433  1  0.47734000  0.52262300  0.66567900  1
  N  447  1  0.53119200  0.52328000  0.32068600  1
  N  450  1  0.47740700  0.48755900  0.33909400  1
  N  464  1  0.53115400  0.32339600  0.48419100  1
  N  467  1  0.47738900  0.34179300  0.51991900  1
  N  481  1  0.53121300  0.68675500  0.52057000  1
  N  484  1  0.47731600  0.66846600  0.48481300  1
  N  498  1  0.72879000  0.27506200  0.24836900  1
  N  501  1  0.78534400  0.23714500  0.25804300  1
  N  515  1  0.72877000  0.73516600  0.75641100  1
  N  518  1  0.78551100  0.77297900  0.74664800  1
  N  532  1  0.72879400  0.75913900  0.27228000  1
  N  535  1  0.78556700  0.74939000  0.23448700  1
  N  549  1  0.72860600  0.25099400  0.73258300  1
  N  552  1  0.78578300  0.26080500  0.77021500  1
  N  566  1  0.28019500  0.73477300  0.24988000  1
  N  569  1  0.23238800  0.77673900  0.25449400  1
  N  583  1  0.28021900  0.27543100  0.75481900  1
  N  586  1  0.23247900  0.23343800  0.75024400  1
  N  600  1  0.28007400  0.25261600  0.27267400  1
  N  603  1  0.23229200  0.25722100  0.23068500  1
  N  617  1  0.28028000  0.75763900  0.73209500  1
  N  620  1  0.23233700  0.75287900  0.77399400  1
  O  373  1  0.88225600  0.00700800  0.17545000  1
  O  390  1  0.88244100  0.00316700  0.82929200  1
  O  407  1  0.88214100  0.83226500  0.00444900  1
  O  424  1  0.88199800  0.17830700  0.00023000  1
  O  441  1  0.42235700  0.50301200  0.62834400  1
  O  458  1  0.42225600  0.50719000  0.37632000  1
  O  475  1  0.42223900  0.37905700  0.50034800  1
  O  492  1  0.42307400  0.63110500  0.50485800  1
  O  509  1  0.78544500  0.22672100  0.30736300  1
  O  526  1  0.78580300  0.78320500  0.69729200  1
  O  543  1  0.78579700  0.70007200  0.22385700  1
  O  560  1  0.78621100  0.31023800  0.78070500  1
  O  577  1  0.28494500  0.81094200  0.27982300  1
  O  594  1  0.28509800  0.19924000  0.72495700  1
  O  611  1  0.28486700  0.28253600  0.19649800  1
  O  628  1  0.28557300  0.72776100  0.80796000  1
