# generated using pymatgen
data_H20C43(N2O3)2
_symmetry_space_group_name_H-M   'P 1'
_cell_length_a   12.66441667
_cell_length_b   12.66440000
_cell_length_c   37.99320000
_cell_angle_alpha   89.99890000
_cell_angle_beta   89.99880000
_cell_angle_gamma   119.99986940
_symmetry_Int_Tables_number   1
_chemical_formula_structural   H20C43(N2O3)2
_chemical_formula_sum   'H60 C129 N12 O18'
_cell_volume   5277.24049582
_cell_formula_units_Z   3
loop_
 _symmetry_equiv_pos_site_id
 _symmetry_equiv_pos_as_xyz
  1  'x, y, z'
loop_
 _atom_site_type_symbol
 _atom_site_label
 _atom_site_symmetry_multiplicity
 _atom_site_fract_x
 _atom_site_fract_y
 _atom_site_fract_z
 _atom_site_occupancy
  C  1  1  0.98964433  0.00722333  0.01523400  1
  C  2  1  0.04583633  0.94574733  0.00131667  1
  C  3  1  0.04776367  0.95563667  0.96490100  1
  C  4  1  0.98373100  0.01441000  0.95498700  1
  C  5  1  0.97066067  0.03274167  0.91894600  1
  C  6  1  0.03437800  0.00581300  0.89279800  1
  C  7  1  0.10528700  0.95366700  0.90437600  1
  C  8  1  0.10940533  0.92488933  0.93990100  1
  C  9  1  0.08595633  0.88398533  0.02336200  1
  C  10  1  0.07212300  0.88823100  0.05999700  1
  C  11  1  0.02749367  0.96070567  0.07553200  1
  C  12  1  0.98424367  0.01853567  0.05209600  1
  C  13  1  0.99109367  0.18668667  0.98966400  1
  C  14  1  0.89642600  0.20953400  0.99755700  1
  C  15  1  0.78651133  0.09990333  0.99704900  1
  C  16  1  0.80961100  0.00521200  0.98942300  1
  C  17  1  0.66724200  0.07674800  0.00278200  1
  C  18  1  0.57002333  0.95613333  0.00035300  1
  C  19  1  0.58968200  0.85790400  0.99193500  1
  C  20  1  0.71164533  0.88399133  0.98691733  1
  C  21  1  0.11250800  0.28455600  0.98764700  1
  C  22  1  0.13944467  0.40563267  0.99483600  1
  C  23  1  0.04132333  0.42483533  0.00382900  1
  C  24  1  0.92013233  0.32813433  0.00484800  1
  C  37  1  0.94308367  0.05325967  0.98665800  1
  C  38  1  0.00211633  0.99773733  0.34858300  1
  C  39  1  0.88446100  0.94127000  0.33465200  1
  C  40  1  0.89252267  0.93920167  0.29824300  1
  C  41  1  0.01532333  0.00357633  0.28833800  1
  C  42  1  0.04676367  0.01685467  0.25229800  1
  C  43  1  0.95615900  0.95325000  0.22613200  1
  C  44  1  0.83307533  0.88228833  0.23769000  1
  C  45  1  0.80015833  0.87779833  0.27322500  1
  C  46  1  0.78254567  0.90132767  0.35667700  1
  C  47  1  0.80056933  0.91542633  0.39330700  1
  C  48  1  0.91764933  0.96012533  0.40886800  1
  C  49  1  0.01877167  0.00333167  0.38544800  1
  C  50  1  0.18019067  0.99630267  0.32305800  1
  C  51  1  0.29765233  0.09095033  0.33100300  1
  C  52  1  0.29793900  0.20086700  0.33046400  1
  C  53  1  0.18018267  0.17776567  0.32278100  1
  C  54  1  0.39402200  0.32012900  0.33621800  1
  C  55  1  0.37063833  0.41734433  0.33375400  1
  C  56  1  0.25279200  0.39769600  0.32527400  1
  C  57  1  0.15693567  0.27572767  0.32024900  1
  C  58  1  0.15666967  0.87490067  0.32101500  1
  C  59  1  0.25078633  0.84795433  0.32823200  1
  C  60  1  0.36806533  0.94605733  0.33726800  1
  C  61  1  0.39253367  0.06723867  0.33831600  1
  C  74  1  0.09476467  0.04429067  0.32001800  1
  C  75  1  0.98037667  0.98550767  0.68189600  1
  C  76  1  0.04171767  0.10318067  0.66798000  1
  C  77  1  0.03184967  0.09521467  0.63156600  1
  C  78  1  0.97309567  0.97241267  0.62164800  1
  C  79  1  0.95478467  0.94102667  0.58560633  1
  C  80  1  0.98164033  0.03167433  0.55946300  1
  C  81  1  0.03374700  0.15472500  0.57104400  1
  C  82  1  0.06243900  0.18759300  0.60657200  1
  C  83  1  0.10378333  0.20503633  0.69001600  1
  C  84  1  0.09958200  0.18697100  0.72665100  1
  C  85  1  0.02706267  0.06988467  0.74219600  1
  C  86  1  0.96920433  0.96880333  0.71876000  1
  C  87  1  0.80088767  0.80750367  0.65637000  1
  C  88  1  0.77803067  0.68999067  0.66426600  1
  C  89  1  0.88765667  0.68969967  0.66374000  1
  C  90  1  0.98232667  0.80747867  0.65608800  1
  C  91  1  0.91082867  0.59359867  0.66946100  1
  C  92  1  0.03142933  0.61698233  0.66697900  1
  C  93  1  0.12961933  0.73481633  0.65848000  1
  C  94  1  0.10349167  0.83066767  0.65346200  1
  C  95  1  0.70298900  0.83096200  0.65422800  1
  C  96  1  0.58190167  0.73684967  0.66142400  1
  C  97  1  0.56271900  0.61959200  0.67049900  1
  C  98  1  0.65942600  0.59511600  0.67156500  1
  C  111  1  0.93429800  0.89291100  0.65331700  1
  C  112  1  0.01927667  0.05448567  0.78005500  1
  C  113  1  0.02113200  0.14204900  0.80398700  1
  C  114  1  0.03303067  0.13386267  0.84119700  1
  C  115  1  0.02807633  0.02729133  0.85572500  1
  C  116  1  0.01522967  0.93570367  0.83177800  1
  C  117  1  0.01568533  0.95083833  0.79522000  1
  C  119  1  0.04704967  0.32994067  0.84764100  1
  C  120  1  0.02211067  0.33164567  0.81159700  1
  C  126  1  0.01463967  0.42660567  0.79586000  1
  C  130  1  0.01998433  0.96861633  0.11338900  1
  C  131  1  0.10574733  0.96683033  0.13731400  1
  C  132  1  0.08567233  0.95488433  0.17452300  1
  C  133  1  0.98400000  0.95973100  0.18906000  1
  C  134  1  0.90525733  0.97260533  0.16512100  1
  C  135  1  0.91991033  0.97215833  0.12856200  1
  C  137  1  0.26779867  0.94097867  0.18094300  1
  C  138  1  0.29449100  0.96613100  0.14490700  1
  C  144  1  0.39678433  0.97352733  0.12907800  1
  C  148  1  0.93298600  0.96783900  0.44672700  1
  C  149  1  0.84544600  0.88211400  0.47066300  1
  C  150  1  0.85360933  0.90223033  0.50787000  1
  C  151  1  0.96014600  0.00390800  0.52239300  1
  C  152  1  0.05167633  0.08271033  0.49844200  1
  C  153  1  0.03656533  0.06799133  0.46188500  1
  C  155  1  0.65760233  0.72010133  0.51432400  1
  C  156  1  0.65595367  0.69340767  0.47828800  1
  C  162  1  0.56097733  0.59090733  0.46253500  1
  C  166  1  0.48664400  0.73694000  0.98952667  1
  C  167  1  0.47582067  0.63691067  0.00930200  1
  C  168  1  0.36354333  0.52352533  0.01126000  1
  C  169  1  0.26009067  0.50894267  0.99204300  1
  C  170  1  0.27509767  0.60622467  0.97025600  1
  C  171  1  0.38499200  0.71755700  0.96926233  1
  C  173  1  0.46024867  0.44897867  0.05074100  1
  C  174  1  0.57155000  0.55968300  0.04800800  1
  C  180  1  0.67781733  0.57972333  0.06446700  1
  C  184  1  0.23484933  0.50072533  0.32285800  1
  C  185  1  0.14552000  0.51148100  0.34258500  1
  C  186  1  0.14445667  0.62376967  0.34457500  1
  C  187  1  0.23344933  0.72731333  0.32541100  1
  C  188  1  0.31591533  0.71241333  0.30367800  1
  C  189  1  0.31734867  0.60251767  0.30267500  1
  C  191  1  0.97278133  0.52683133  0.38390300  1
  C  192  1  0.97219267  0.41553767  0.38116800  1
  C  198  1  0.88560300  0.30927500  0.39751800  1
  C  202  1  0.25060200  0.75276600  0.65603600  1
  C  203  1  0.35082167  0.84237067  0.67566300  1
  C  204  1  0.46417733  0.84343333  0.67765800  1
  C  205  1  0.47859900  0.75419200  0.65858800  1
  C  206  1  0.38117467  0.67160467  0.63689500  1
  C  207  1  0.26980033  0.67008133  0.63592200  1
  C  209  1  0.53916067  0.01562167  0.71679833  1
  C  210  1  0.42850633  0.01628433  0.71401100  1
  C  216  1  0.40874700  0.10306000  0.73022700  1
  H  25  1  0.05726767  0.51065367  0.00952300  1
  H  26  1  0.85100100  0.34441000  0.01111800  1
  H  27  1  0.65072000  0.14597800  0.00868300  1
  H  28  1  0.48377800  0.94063200  0.00505600  1
  H  29  1  0.72970467  0.81587567  0.98089700  1
  H  30  1  0.18053200  0.26702000  0.98100200  1
  H  31  1  0.91700833  0.06869333  0.91216600  1
  H  32  1  0.15581333  0.93586633  0.88684967  1
  H  33  1  0.16154767  0.88789767  0.94744600  1
  H  34  1  0.94905800  0.07014400  0.06147700  1
  H  35  1  0.12077400  0.83314200  0.01304200  1
  H  36  1  0.09468833  0.83590133  0.07520300  1
  H  62  1  0.43792800  0.93010700  0.34297700  1
  H  63  1  0.47793067  0.13636867  0.34459100  1
  H  64  1  0.47973433  0.33664533  0.34216900  1
  H  65  1  0.44134800  0.50358100  0.33848700  1
  H  66  1  0.07079767  0.25766767  0.31417500  1
  H  67  1  0.07115433  0.80690233  0.31432500  1
  H  68  1  0.13635700  0.07064300  0.24552800  1
  H  69  1  0.76475400  0.83196600  0.22014500  1
  H  70  1  0.71096200  0.82594900  0.28074200  1
  H  71  1  0.10555900  0.03865100  0.39484400  1
  H  72  1  0.69691600  0.86654500  0.34633300  1
  H  73  1  0.72566267  0.89300467  0.40849400  1
  H  99  1  0.47690367  0.54973367  0.67620500  1
  H  100  1  0.64313933  0.50970833  0.67784000  1
  H  101  1  0.84162400  0.50786800  0.67539700  1
  H  102  1  0.04693900  0.54625300  0.67169600  1
  H  103  1  0.17154233  0.91680033  0.64737400  1
  H  104  1  0.72052467  0.91646267  0.64750800  1
  H  105  1  0.91877833  0.85141733  0.57882700  1
  H  106  1  0.05153800  0.22305600  0.55352000  1
  H  107  1  0.09957167  0.27673467  0.61412000  1
  H  108  1  0.91763700  0.88201300  0.72814600  1
  H  109  1  0.15456000  0.29070100  0.67969000  1
  H  110  1  0.15199533  0.26185233  0.74185000  1
  H  122  1  0.01571400  0.88465400  0.77978600  1
  H  123  1  0.00875533  0.85633233  0.84067867  1
  H  125  1  0.07595800  0.23889900  0.88545300  1
  H  129  1  0.89241900  0.42835400  0.82402000  1
  H  140  1  0.85366667  0.97208367  0.11313300  1
  H  141  1  0.83233767  0.97902667  0.17402600  1
  H  143  1  0.14781467  0.91189067  0.21876300  1
  H  147  1  0.52043667  0.09557967  0.15744400  1
  H  158  1  0.10277000  0.13415900  0.44644600  1
  H  159  1  0.13107100  0.15557600  0.50734100  1
  H  161  1  0.74856633  0.84013233  0.55212800  1
  H  165  1  0.56037867  0.46731067  0.49061900  1
  H  176  1  0.38878333  0.78637533  0.95413733  1
  H  177  1  0.20366700  0.59876300  0.95561533  1
  H  179  1  0.28531467  0.35938167  0.03655100  1
  H  183  1  0.69391933  0.45242433  0.04376300  1
  H  194  1  0.38247567  0.59879767  0.28758000  1
  H  195  1  0.38000333  0.78391233  0.28908300  1
  H  197  1  0.05829167  0.70184967  0.36980800  1
  H  201  1  0.74209933  0.29238033  0.37682500  1
  H  212  1  0.20087500  0.60478500  0.62088700  1
  H  213  1  0.38844300  0.60726500  0.62238800  1
  H  215  1  0.62847767  0.92977867  0.70286000  1
  H  219  1  0.53576900  0.24574100  0.70913400  1
  N  118  1  0.05290333  0.23315633  0.86089300  1
  N  121  1  0.01318100  0.23866900  0.79177167  1
  N  136  1  0.16509133  0.93495533  0.19420300  1
  N  139  1  0.21036333  0.97490733  0.12508800  1
  N  154  1  0.75433133  0.82279333  0.52757100  1
  N  157  1  0.74888600  0.77748600  0.45845300  1
  N  172  1  0.36076400  0.43574300  0.03307200  1
  N  175  1  0.57266167  0.64851367  0.02787900  1
  N  190  1  0.05923333  0.62642333  0.36631800  1
  N  193  1  0.06007733  0.41453233  0.36108300  1
  N  208  1  0.55214633  0.92887833  0.69933300  1
  N  211  1  0.33947000  0.92810500  0.69404500  1
  O  124  1  0.06710800  0.42355400  0.86916100  1
  O  127  1  0.05016000  0.45350400  0.76549200  1
  O  128  1  0.93589933  0.45226633  0.80438533  1
  O  142  1  0.34136633  0.92086133  0.20244100  1
  O  145  1  0.38814667  0.93683467  0.09886200  1
  O  146  1  0.50113633  0.05186233  0.13785900  1
  O  160  1  0.56399200  0.64650500  0.53584300  1
  O  163  1  0.53315533  0.60046733  0.43236100  1
  O  164  1  0.53581900  0.48668000  0.47107400  1
  O  178  1  0.45022333  0.35639733  0.07104900  1
  O  181  1  0.74707733  0.68178933  0.07587900  1
  O  182  1  0.72895500  0.52249000  0.05539400  1
  O  196  1  0.88997333  0.53674233  0.40412500  1
  O  199  1  0.91846333  0.23964333  0.40863000  1
  O  200  1  0.77734667  0.25748967  0.38841200  1
  O  214  1  0.63196100  0.09866000  0.73694800  1
  O  217  1  0.30683467  0.07065167  0.74169633  1
  O  218  1  0.46583800  0.21110500  0.72083333  1
