# generated using pymatgen
data_HoH27C30(NO2)3
_symmetry_space_group_name_H-M   'P 1'
_cell_length_a   9.30935000
_cell_length_b   12.62997000
_cell_length_c   18.66569000
_cell_angle_alpha   106.78779000
_cell_angle_beta   97.08703000
_cell_angle_gamma   100.86431000
_symmetry_Int_Tables_number   1
_chemical_formula_structural   HoH27C30(NO2)3
_chemical_formula_sum   'Ho2 H54 C60 N6 O12'
_cell_volume   2026.22092119
_cell_formula_units_Z   2
loop_
 _symmetry_equiv_pos_site_id
 _symmetry_equiv_pos_as_xyz
  1  'x, y, z'
loop_
 _atom_site_type_symbol
 _atom_site_label
 _atom_site_symmetry_multiplicity
 _atom_site_fract_x
 _atom_site_fract_y
 _atom_site_fract_z
 _atom_site_occupancy
  Ho  Ho0  1  0.28330000  0.48654000  0.49623000  1
  Ho  Ho1  1  0.71689000  0.51361000  0.50387000  1
  H  H2  1  0.58510000  0.05040000  0.09491000  1
  H  H3  1  0.42233000  0.07570000  0.05308000  1
  H  H4  1  0.62330000  0.67331000  0.09357000  1
  H  H5  1  0.46737000  0.55746000  0.06031000  1
  H  H6  1  0.97789000  0.75337000  0.95319000  1
  H  H7  1  0.98765000  0.61688000  0.95460000  1
  H  H8  1  0.66604000  0.83371000  0.17433000  1
  H  H9  1  0.60257000  0.95908000  0.20306000  1
  H  H10  1  0.70371000  0.93753000  0.12816000  1
  H  H11  1  0.28765000  0.50254000  0.95440000  1
  H  H12  1  0.10567000  0.51592000  0.96257000  1
  H  H13  1  0.22601000  0.50797000  0.04112000  1
  H  H14  1  0.13695000  0.89480000  0.92286000  1
  H  H15  1  0.23150000  0.01935000  0.99881000  1
  H  H16  1  0.06681000  0.93366000  0.00802000  1
  H  H17  1  0.67731000  0.16869000  0.20626000  1
  H  H18  1  0.65380000  0.29410000  0.33213000  1
  H  H19  1  0.17531000  0.16416000  0.26834000  1
  H  H20  1  0.21252000  0.03878000  0.14419000  1
  H  H21  1  0.73566000  0.65417000  0.19714000  1
  H  H22  1  0.73768000  0.63624000  0.32743000  1
  H  H23  1  0.26378000  0.61377000  0.29423000  1
  H  H24  1  0.27556000  0.64110000  0.16727000  1
  H  H25  1  0.27967000  0.64700000  0.87745000  1
  H  H26  1  0.28243000  0.57497000  0.73931000  1
  H  H27  1  0.82109000  0.59190000  0.69279000  1
  H  H28  1  0.83031000  0.66256000  0.83275000  1
  H  H29  1  0.41529000  0.94957000  0.90500000  1
  H  H30  1  0.57818000  0.92410000  0.94664000  1
  H  H31  1  0.37786000  0.32702000  0.90634000  1
  H  H32  1  0.53395000  0.44263000  0.93972000  1
  H  H33  1  0.02250000  0.24660000  0.04755000  1
  H  H34  1  0.01263000  0.38306000  0.04591000  1
  H  H35  1  0.33487000  0.16655000  0.82557000  1
  H  H36  1  0.39763000  0.04084000  0.79681000  1
  H  H37  1  0.29724000  0.06313000  0.87209000  1
  H  H38  1  0.71289000  0.49744000  0.04553000  1
  H  H39  1  0.89497000  0.48405000  0.03762000  1
  H  H40  1  0.77519000  0.49190000  0.95895000  1
  H  H41  1  0.86324000  0.10494000  0.07729000  1
  H  H42  1  0.76856000  0.98044000  0.00133000  1
  H  H43  1  0.93340000  0.06593000  0.99216000  1
  H  H44  1  0.32278000  0.83180000  0.79259000  1
  H  H45  1  0.34701000  0.70655000  0.66686000  1
  H  H46  1  0.82558000  0.83474000  0.73218000  1
  H  H47  1  0.78732000  0.95974000  0.85630000  1
  H  H48  1  0.26585000  0.34761000  0.80304000  1
  H  H49  1  0.26417000  0.36527000  0.67260000  1
  H  H50  1  0.73736000  0.38501000  0.70534000  1
  H  H51  1  0.72540000  0.35853000  0.83257000  1
  H  H52  1  0.72129000  0.35466000  0.12317000  1
  H  H53  1  0.71875000  0.42620000  0.26148000  1
  H  H54  1  0.17864000  0.40594000  0.30764000  1
  H  H55  1  0.16898000  0.33517000  0.16755000  1
  C  C56  1  0.39585000  0.90908000  0.06797000  1
  C  C57  1  0.47427000  0.83952000  0.09650000  1
  C  C58  1  0.41681000  0.72099000  0.07165000  1
  C  C59  1  0.27773000  0.67136000  0.02152000  1
  C  C60  1  0.19760000  0.74178000  0.99587000  1
  C  C61  1  0.25786000  0.86044000  0.01746000  1
  C  C62  1  0.46485000  0.03578000  0.09362000  1
  C  C63  1  0.50651000  0.64611000  0.09797000  1
  C  C64  1  0.04812000  0.69186000  0.94286000  1
  C  C65  1  0.61895000  0.89418000  0.15300000  1
  C  C66  1  0.22068000  0.54336000  0.99382000  1
  C  C67  1  0.17000000  0.93106000  0.98519000  1
  C  C68  1  0.57027000  0.16928000  0.22348000  1
  C  C69  1  0.55512000  0.23732000  0.29233000  1
  C  C70  1  0.41199000  0.23836000  0.31146000  1
  C  C71  1  0.28655000  0.16490000  0.25589000  1
  C  C72  1  0.30456000  0.09691000  0.18751000  1
  C  C73  1  0.39436000  0.31710000  0.38244000  1
  C  C74  1  0.63609000  0.64700000  0.22189000  1
  C  C75  1  0.63524000  0.63698000  0.29272000  1
  C  C76  1  0.50101000  0.62459000  0.32190000  1
  C  C77  1  0.36881000  0.62411000  0.27425000  1
  C  C78  1  0.37241000  0.63677000  0.20412000  1
  C  C79  1  0.50033000  0.60641000  0.39597000  1
  C  C80  1  0.18232000  0.63317000  0.83449000  1
  C  C81  1  0.18165000  0.59436000  0.75804000  1
  C  C82  1  0.05220000  0.57988000  0.70307000  1
  C  C83  1  0.92332000  0.60373000  0.73229000  1
  C  C84  1  0.92631000  0.64271000  0.80890000  1
  C  C85  1  0.05272000  0.54565000  0.62141000  1
  C  C86  1  0.60476000  0.09083000  0.93191000  1
  C  C87  1  0.52659000  0.16051000  0.90335000  1
  C  C88  1  0.58418000  0.27902000  0.92826000  1
  C  C89  1  0.72301000  0.32860000  0.97863000  1
  C  C90  1  0.80280000  0.25817000  0.00449000  1
  C  C91  1  0.74253000  0.13946000  0.98268000  1
  C  C92  1  0.53547000  0.96403000  0.90613000  1
  C  C93  1  0.49468000  0.35407000  0.90196000  1
  C  C94  1  0.95216000  0.30807000  0.05766000  1
  C  C95  1  0.38179000  0.10600000  0.84690000  1
  C  C96  1  0.78007000  0.45657000  0.00627000  1
  C  C97  1  0.83019000  0.06872000  0.01496000  1
  C  C98  1  0.43002000  0.83080000  0.77568000  1
  C  C99  1  0.44579000  0.76273000  0.70688000  1
  C  C100  1  0.58924000  0.76124000  0.68822000  1
  C  C101  1  0.71418000  0.83435000  0.74427000  1
  C  C102  1  0.69560000  0.90215000  0.81256000  1
  C  C103  1  0.60878000  0.68326000  0.61740000  1
  C  C104  1  0.36528000  0.35407000  0.77814000  1
  C  C105  1  0.36627000  0.36385000  0.70723000  1
  C  C106  1  0.50031000  0.37541000  0.67791000  1
  C  C107  1  0.63238000  0.37537000  0.72547000  1
  C  C108  1  0.62868000  0.36311000  0.79570000  1
  C  C109  1  0.50061000  0.39343000  0.60380000  1
  C  C110  1  0.81831000  0.36763000  0.16603000  1
  C  C111  1  0.81902000  0.40619000  0.24248000  1
  C  C112  1  0.94826000  0.41983000  0.29721000  1
  C  C113  1  0.07684000  0.39515000  0.26808000  1
  C  C114  1  0.07358000  0.35623000  0.19150000  1
  C  C115  1  0.94738000  0.45371000  0.37874000  1
  N  N116  1  0.44643000  0.09670000  0.17027000  1
  N  N117  1  0.50612000  0.65076000  0.17721000  1
  N  N118  1  0.05714000  0.66179000  0.86167000  1
  N  N119  1  0.55360000  0.90287000  0.82939000  1
  N  N120  1  0.49506000  0.34975000  0.82275000  1
  N  N121  1  0.94302000  0.33813000  0.13881000  1
  O  O122  1  0.26306000  0.32031000  0.39610000  1
  O  O123  1  0.51137000  0.38609000  0.42881000  1
  O  O124  1  0.37327000  0.57727000  0.41425000  1
  O  O125  1  0.62793000  0.61853000  0.43668000  1
  O  O126  1  0.17867000  0.54000000  0.60015000  1
  O  O127  1  0.93045000  0.52343000  0.57417000  1
  O  O128  1  0.74083000  0.68221000  0.60410000  1
  O  O129  1  0.49311000  0.61261000  0.57071000  1
  O  O130  1  0.62775000  0.42257000  0.58565000  1
  O  O131  1  0.37300000  0.38147000  0.56312000  1
  O  O132  1  0.82144000  0.45912000  0.39992000  1
  O  O133  1  0.06988000  0.47645000  0.42594000  1
