# generated using pymatgen
data_ZnAgH18(C16N3)2
_symmetry_space_group_name_H-M   'P 1'
_cell_length_a   11.06158000
_cell_length_b   16.86761938
_cell_length_c   23.10845000
_cell_angle_alpha   107.77429991
_cell_angle_beta   90.38070000
_cell_angle_gamma   107.89269087
_symmetry_Int_Tables_number   1
_chemical_formula_structural   ZnAgH18(C16N3)2
_chemical_formula_sum   'Zn4 Ag4 H72 C128 N24'
_cell_volume   3883.16903663
_cell_formula_units_Z   4
loop_
 _symmetry_equiv_pos_site_id
 _symmetry_equiv_pos_as_xyz
  1  'x, y, z'
loop_
 _atom_site_type_symbol
 _atom_site_label
 _atom_site_symmetry_multiplicity
 _atom_site_fract_x
 _atom_site_fract_y
 _atom_site_fract_z
 _atom_site_occupancy
  Zn  Zn0  1  0.39226000  0.99931000  0.74944000  1
  Zn  Zn1  1  0.10572000  0.00170000  0.75048000  1
  Zn  Zn2  1  0.60773000  0.00069000  0.25056000  1
  Zn  Zn3  1  0.89427000  0.99830000  0.24952000  1
  Ag  Ag4  1  0.04765000  0.32334000  0.29776000  1
  Ag  Ag5  1  0.72882000  0.67459000  0.20263000  1
  Ag  Ag6  1  0.95234000  0.67666000  0.70224000  1
  Ag  Ag7  1  0.27118000  0.32542000  0.79737000  1
  H  H8  1  0.35128000  0.63466000  0.43812000  1
  H  H9  1  0.97816000  0.57513000  0.50174000  1
  H  H10  1  0.43033000  0.76765000  0.52980000  1
  H  H11  1  0.05883000  0.70761000  0.59265000  1
  H  H12  1  0.36384000  0.89126000  0.51818000  1
  H  H13  1  0.20510000  0.67011000  0.66640000  1
  H  H14  1  0.53133000  0.05592000  0.55440000  1
  H  H15  1  0.57874000  0.10363000  0.67852000  1
  H  H16  1  0.15107000  0.71701000  0.78440000  1
  H  H17  1  0.73457000  0.70484000  0.69517000  1
  H  H18  1  0.81340000  0.71506000  0.58597000  1
  H  H19  1  0.88919000  0.85531000  0.78185000  1
  H  H20  1  0.16237000  0.84843000  0.90324000  1
  H  H21  1  0.12067000  0.99526000  0.97204000  1
  H  H22  1  0.75946000  0.81654000  0.54572000  1
  H  H23  1  0.14753000  0.85655000  0.50524000  1
  H  H24  1  0.68253000  0.73003000  0.43706000  1
  H  H25  1  0.07223000  0.77346000  0.39589000  1
  H  H26  1  0.71815000  0.35909000  0.05891000  1
  H  H27  1  0.40244000  0.42651000  0.00089000  1
  H  H28  1  0.66175000  0.22618000  0.96709000  1
  H  H29  1  0.34839000  0.29435000  0.90950000  1
  H  H30  1  0.47193000  0.10524000  0.98026000  1
  H  H31  1  0.52796000  0.32807000  0.83270000  1
  H  H32  1  0.47924000  0.93927000  0.94392000  1
  H  H33  1  0.47740000  0.89123000  0.81994000  1
  H  H34  1  0.42760000  0.28258000  0.71501000  1
  H  H35  1  0.02792000  0.30237000  0.80644000  1
  H  H36  1  0.09659000  0.29021000  0.91539000  1
  H  H37  1  0.03545000  0.15107000  0.71923000  1
  H  H38  1  0.30809000  0.14982000  0.59532000  1
  H  H39  1  0.12163000  0.00497000  0.52735000  1
  H  H40  1  0.94362000  0.18790000  0.95418000  1
  H  H41  1  0.29134000  0.14423000  0.99562000  1
  H  H42  1  0.94881000  0.27255000  0.06315000  1
  H  H43  1  0.29527000  0.22580000  0.10515000  1
  H  H44  1  0.64871000  0.36536000  0.56188000  1
  H  H45  1  0.02182000  0.42488000  0.49825000  1
  H  H46  1  0.56967000  0.23236000  0.47021000  1
  H  H47  1  0.94117000  0.29240000  0.40735000  1
  H  H48  1  0.63616000  0.10875000  0.48182000  1
  H  H49  1  0.79491000  0.32990000  0.33360000  1
  H  H50  1  0.46866000  0.94408000  0.44560000  1
  H  H51  1  0.42125000  0.89637000  0.32148000  1
  H  H52  1  0.84893000  0.28300000  0.21560000  1
  H  H53  1  0.26543000  0.29516000  0.30483000  1
  H  H54  1  0.18660000  0.28495000  0.41404000  1
  H  H55  1  0.11082000  0.14470000  0.21816000  1
  H  H56  1  0.83762000  0.15157000  0.09677000  1
  H  H57  1  0.87933000  0.00475000  0.02797000  1
  H  H58  1  0.24054000  0.18347000  0.45428000  1
  H  H59  1  0.85247000  0.14346000  0.49476000  1
  H  H60  1  0.31746000  0.26997000  0.56294000  1
  H  H61  1  0.92776000  0.22654000  0.60412000  1
  H  H62  1  0.28185000  0.64092000  0.94109000  1
  H  H63  1  0.59756000  0.57350000  0.99911000  1
  H  H64  1  0.33825000  0.77383000  0.03291000  1
  H  H65  1  0.65161000  0.70566000  0.09051000  1
  H  H66  1  0.52807000  0.89477000  0.01974000  1
  H  H67  1  0.47204000  0.67194000  0.16731000  1
  H  H68  1  0.52076000  0.06074000  0.05608000  1
  H  H69  1  0.52259000  0.10877000  0.18006000  1
  H  H70  1  0.57240000  0.71743000  0.28499000  1
  H  H71  1  0.97207000  0.69764000  0.19357000  1
  H  H72  1  0.90340000  0.70979000  0.08461000  1
  H  H73  1  0.96455000  0.84894000  0.28077000  1
  H  H74  1  0.69191000  0.85019000  0.40468000  1
  H  H75  1  0.87837000  0.99504000  0.47265000  1
  H  H76  1  0.05638000  0.81211000  0.04582000  1
  H  H77  1  0.70866000  0.85578000  0.00438000  1
  H  H78  1  0.05120000  0.72746000  0.93685000  1
  H  H79  1  0.70473000  0.77421000  0.89485000  1
  C  C80  1  0.11529000  0.51947000  0.41165000  1
  C  C81  1  0.15977000  0.59555000  0.46363000  1
  C  C82  1  0.28786000  0.65162000  0.47194000  1
  C  C83  1  0.07738000  0.61664000  0.50811000  1
  C  C84  1  0.33171000  0.72570000  0.52311000  1
  C  C85  1  0.12323000  0.69055000  0.55927000  1
  C  C86  1  0.25139000  0.74697000  0.56862000  1
  C  C87  1  0.29637000  0.82467000  0.62314000  1
  C  C88  1  0.38009000  0.90506000  0.61800000  1
  C  C89  1  0.25123000  0.81455000  0.67912000  1
  C  C90  1  0.40702000  0.93010000  0.56442000  1
  C  C91  1  0.20669000  0.73497000  0.69489000  1
  C  C92  1  0.49305000  0.01575000  0.58301000  1
  C  C93  1  0.51727000  0.04140000  0.64714000  1
  C  C94  1  0.17782000  0.75880000  0.75579000  1
  C  C95  1  0.20205000  0.85187000  0.77527000  1
  C  C96  1  0.81625000  0.75489000  0.68770000  1
  C  C97  1  0.17364000  0.90945000  0.82916000  1
  C  C98  1  0.85091000  0.76408000  0.63041000  1
  C  C99  1  0.88821000  0.83582000  0.73250000  1
  C  C100  1  0.15634000  0.90241000  0.88881000  1
  C  C101  1  0.94165000  0.84945000  0.64257000  1
  C  C102  1  0.13768000  0.97891000  0.92442000  1
  C  C103  1  0.14123000  0.03255000  0.88581000  1
  C  C104  1  0.00518000  0.88910000  0.59920000  1
  C  C105  1  0.95929000  0.84200000  0.53390000  1
  C  C106  1  0.82741000  0.80523000  0.51312000  1
  C  C107  1  0.04591000  0.82968000  0.49007000  1
  C  C108  1  0.78426000  0.75722000  0.45230000  1
  C  C109  1  0.00424000  0.78280000  0.42886000  1
  C  C110  1  0.87222000  0.74516000  0.40922000  1
  C  C111  1  0.82705000  0.69664000  0.34701000  1
  C  C112  1  0.59918000  0.47846000  0.08836000  1
  C  C113  1  0.56510000  0.40243000  0.03628000  1
  C  C114  1  0.63686000  0.34396000  0.02620000  1
  C  C115  1  0.46030000  0.38343000  0.99321000  1
  C  C116  1  0.60519000  0.26989000  0.97486000  1
  C  C117  1  0.43077000  0.30951000  0.94172000  1
  C  C118  1  0.50217000  0.25066000  0.93071000  1
  C  C119  1  0.46854000  0.17292000  0.87594000  1
  C  C120  1  0.47389000  0.09154000  0.88059000  1
  C  C121  1  0.43216000  0.18410000  0.82020000  1
  C  C122  1  0.47711000  0.06611000  0.93405000  1
  C  C123  1  0.46531000  0.26385000  0.80449000  1
  C  C124  1  0.47922000  0.97970000  0.91536000  1
  C  C125  1  0.47736000  0.95403000  0.85124000  1
  C  C126  1  0.41265000  0.24066000  0.74360000  1
  C  C127  1  0.34552000  0.14803000  0.72401000  1
  C  C128  1  0.06076000  0.25137000  0.81378000  1
  C  C129  1  0.25998000  0.09108000  0.67035000  1
  C  C130  1  0.08665000  0.24127000  0.87093000  1
  C  C131  1  0.05389000  0.17026000  0.76865000  1
  C  C132  1  0.24905000  0.09732000  0.61035000  1
  C  C133  1  0.09444000  0.15522000  0.85847000  1
  C  C134  1  0.15518000  0.02189000  0.57516000  1
  C  C135  1  0.10674000  0.96954000  0.61440000  1
  C  C136  1  0.11887000  0.11400000  0.90133000  1
  C  C137  1  0.11787000  0.16027000  0.96650000  1
  C  C138  1  0.02153000  0.19759000  0.98706000  1
  C  C139  1  0.21556000  0.17126000  0.01064000  1
  C  C140  1  0.02395000  0.24455000  0.04802000  1
  C  C141  1  0.21864000  0.21724000  0.07196000  1
  C  C142  1  0.12261000  0.25499000  0.09147000  1
  C  C143  1  0.12309000  0.30213000  0.15384000  1
  C  C144  1  0.88459000  0.48037000  0.58823000  1
  C  C145  1  0.84022000  0.40448000  0.53639000  1
  C  C146  1  0.71213000  0.34839000  0.52807000  1
  C  C147  1  0.92261000  0.38338000  0.49190000  1
  C  C148  1  0.66829000  0.27431000  0.47689000  1
  C  C149  1  0.87676000  0.30946000  0.44073000  1
  C  C150  1  0.74861000  0.25305000  0.43138000  1
  C  C151  1  0.70362000  0.17533000  0.37686000  1
  C  C152  1  0.61991000  0.09495000  0.38200000  1
  C  C153  1  0.74877000  0.18546000  0.32089000  1
  C  C154  1  0.59297000  0.06990000  0.43558000  1
  C  C155  1  0.79331000  0.26504000  0.30511000  1
  C  C156  1  0.50694000  0.98425000  0.41700000  1
  C  C157  1  0.48272000  0.95860000  0.35286000  1
  C  C158  1  0.82217000  0.24120000  0.24422000  1
  C  C159  1  0.79794000  0.14813000  0.22473000  1
  C  C160  1  0.18374000  0.24511000  0.31230000  1
  C  C161  1  0.82636000  0.09056000  0.17085000  1
  C  C162  1  0.14910000  0.23593000  0.36959000  1
  C  C163  1  0.11179000  0.16418000  0.26750000  1
  C  C164  1  0.84366000  0.09760000  0.11120000  1
  C  C165  1  0.05835000  0.15056000  0.35743000  1
  C  C166  1  0.86231000  0.02109000  0.07558000  1
  C  C167  1  0.85877000  0.96746000  0.11419000  1
  C  C168  1  0.99482000  0.11091000  0.40081000  1
  C  C169  1  0.04071000  0.15801000  0.46610000  1
  C  C170  1  0.17259000  0.19478000  0.48688000  1
  C  C171  1  0.95408000  0.17032000  0.50994000  1
  C  C172  1  0.21574000  0.24279000  0.54770000  1
  C  C173  1  0.99576000  0.21721000  0.57115000  1
  C  C174  1  0.12778000  0.25485000  0.59079000  1
  C  C175  1  0.17293000  0.30335000  0.65297000  1
  C  C176  1  0.40086000  0.52164000  0.91170000  1
  C  C177  1  0.43489000  0.59756000  0.96371000  1
  C  C178  1  0.36314000  0.65604000  0.97380000  1
  C  C179  1  0.53969000  0.61657000  0.00679000  1
  C  C180  1  0.39481000  0.73012000  0.02514000  1
  C  C181  1  0.56923000  0.69050000  0.05829000  1
  C  C182  1  0.49783000  0.74935000  0.06929000  1
  C  C183  1  0.53146000  0.82709000  0.12407000  1
  C  C184  1  0.52610000  0.90847000  0.11941000  1
  C  C185  1  0.56783000  0.81590000  0.17980000  1
  C  C186  1  0.52289000  0.93390000  0.06595000  1
  C  C187  1  0.53468000  0.73615000  0.19551000  1
  C  C188  1  0.52078000  0.02031000  0.08464000  1
  C  C189  1  0.52264000  0.04598000  0.14877000  1
  C  C190  1  0.58734000  0.75935000  0.25641000  1
  C  C191  1  0.65448000  0.85198000  0.27599000  1
  C  C192  1  0.93924000  0.74864000  0.18622000  1
  C  C193  1  0.74002000  0.90893000  0.32965000  1
  C  C194  1  0.91335000  0.75874000  0.12907000  1
  C  C195  1  0.94610000  0.82974000  0.23135000  1
  C  C196  1  0.75095000  0.90269000  0.38965000  1
  C  C197  1  0.90556000  0.84479000  0.14153000  1
  C  C198  1  0.84482000  0.97812000  0.42484000  1
  C  C199  1  0.89326000  0.03047000  0.38560000  1
  C  C200  1  0.88113000  0.88601000  0.09867000  1
  C  C201  1  0.88213000  0.83974000  0.03350000  1
  C  C202  1  0.97847000  0.80242000  0.01294000  1
  C  C203  1  0.78443000  0.82874000  0.98936000  1
  C  C204  1  0.97605000  0.75546000  0.95198000  1
  C  C205  1  0.78137000  0.78277000  0.92805000  1
  C  C206  1  0.87740000  0.74502000  0.90853000  1
  C  C207  1  0.87690000  0.69789000  0.84618000  1
  N  N208  1  0.07930000  0.45638000  0.36861000  1
  N  N209  1  0.45077000  0.97587000  0.66835000  1
  N  N210  1  0.24950000  0.88410000  0.72953000  1
  N  N211  1  0.16259000  0.98716000  0.82776000  1
  N  N212  1  0.96211000  0.89150000  0.70586000  1
  N  N213  1  0.62869000  0.54180000  0.13163000  1
  N  N214  1  0.47474000  0.02023000  0.83005000  1
  N  N215  1  0.36199000  0.11537000  0.76980000  1
  N  N216  1  0.17285000  0.01486000  0.67243000  1
  N  N217  1  0.07403000  0.11386000  0.79528000  1
  N  N218  1  0.12050000  0.34169000  0.20494000  1
  N  N219  1  0.78593000  0.65604000  0.29602000  1
  N  N220  1  0.87949000  0.65830000  0.79504000  1
  N  N221  1  0.21408000  0.34398000  0.70400000  1
  N  N222  1  0.92085000  0.54377000  0.63150000  1
  N  N223  1  0.54923000  0.02414000  0.33165000  1
  N  N224  1  0.75050000  0.11591000  0.27047000  1
  N  N225  1  0.83741000  0.01285000  0.17224000  1
  N  N226  1  0.03789000  0.10851000  0.29414000  1
  N  N227  1  0.37127000  0.45814000  0.86833000  1
  N  N228  1  0.52526000  0.97978000  0.16996000  1
  N  N229  1  0.63801000  0.88464000  0.23020000  1
  N  N230  1  0.82715000  0.98515000  0.32757000  1
  N  N231  1  0.92597000  0.88615000  0.20473000  1
