# generated using pymatgen
data_H32C53(N3O2)4
_symmetry_space_group_name_H-M   'P 1'
_cell_length_a   38.01746936
_cell_length_b   38.01658460
_cell_length_c   38.01746925
_cell_angle_alpha   109.47469344
_cell_angle_beta   109.47305216
_cell_angle_gamma   109.46417225
_symmetry_Int_Tables_number   1
_chemical_formula_structural   H32C53(N3O2)4
_chemical_formula_sum   'H192 C318 N72 O48'
_cell_volume   42298.69402142
_cell_formula_units_Z   6
loop_
 _symmetry_equiv_pos_site_id
 _symmetry_equiv_pos_as_xyz
  1  'x, y, z'
loop_
 _atom_site_type_symbol
 _atom_site_label
 _atom_site_symmetry_multiplicity
 _atom_site_fract_x
 _atom_site_fract_y
 _atom_site_fract_z
 _atom_site_occupancy
  C  1  1  0.32254850  0.76697250  0.39308100  1
  C  2  1  0.36275850  0.79780650  0.40346600  1
  C  3  1  0.39457650  0.79881700  0.43629250  1
  C  4  1  0.37412800  0.76897600  0.44666600  1
  C  5  1  0.39826950  0.76278200  0.47875050  1
  C  6  1  0.44365550  0.78646650  0.50051100  1
  C  7  1  0.46436900  0.81659750  0.48995750  1
  C  8  1  0.43991200  0.82301550  0.45796050  1
  C  9  1  0.36528800  0.82146350  0.38178550  1
  C  10  1  0.32687350  0.81391300  0.34977850  1
  C  11  1  0.28618850  0.78264150  0.33922400  1
  C  12  1  0.28426900  0.75902150  0.36098850  1
  C  13  1  0.30634000  0.69899950  0.39501450  1
  C  14  1  0.27565200  0.67875200  0.40462700  1
  C  15  1  0.27436600  0.71050250  0.43510350  1
  C  16  1  0.30421850  0.75080900  0.44472150  1
  C  17  1  0.24933450  0.70748850  0.45531100  1
  C  18  1  0.25470900  0.74561600  0.48540300  1
  C  19  1  0.28485100  0.78658700  0.49531400  1
  C  20  1  0.30954050  0.78889950  0.47458300  1
  C  21  1  0.31457350  0.67447300  0.36514750  1
  C  22  1  0.29153850  0.62905150  0.34441100  1
  C  23  1  0.26047950  0.60880550  0.35431800  1
  C  24  1  0.25244400  0.63351100  0.38441700  1
  C  37  1  0.32679250  0.74642300  0.41987050  1
  C  42  1  0.83808650  0.23091050  0.44463500  1
  C  43  1  0.79787600  0.20107800  0.43525400  1
  C  44  1  0.76605800  0.20209450  0.40445350  1
  C  45  1  0.78650500  0.23293250  0.39507850  1
  C  46  1  0.76236100  0.24088000  0.36474800  1
  C  47  1  0.71697700  0.21724650  0.34303850  1
  C  48  1  0.69626450  0.18596500  0.35244350  1
  C  49  1  0.72072300  0.17841950  0.38331250  1
  C  50  1  0.79534900  0.17686300  0.45637600  1
  C  51  1  0.83376200  0.18327000  0.48723800  1
  C  52  1  0.87444800  0.21340650  0.49665650  1
  C  53  1  0.87636700  0.23709400  0.47495600  1
  C  54  1  0.85429250  0.24908050  0.39288500  1
  C  55  1  0.88498200  0.28938350  0.40333650  1
  C  56  1  0.88626850  0.32113950  0.43638100  1
  C  57  1  0.85641650  0.30089400  0.44683050  1
  C  58  1  0.91130100  0.36637850  0.45841250  1
  C  59  1  0.90592500  0.39108850  0.49116650  1
  C  60  1  0.87577950  0.37084500  0.50198850  1
  C  61  1  0.85108750  0.32542500  0.47959950  1
  C  62  1  0.84605700  0.21098800  0.36011400  1
  C  63  1  0.86909200  0.21329650  0.33772850  1
  C  64  1  0.90015400  0.25426650  0.34855450  1
  C  65  1  0.90819350  0.29239500  0.38130850  1
  C  78  1  0.83384200  0.25347250  0.41985850  1
  C  83  1  0.84934750  0.52670850  0.21365300  1
  C  84  1  0.87918450  0.51633150  0.23410900  1
  C  85  1  0.87816250  0.48348850  0.20229600  1
  C  86  1  0.84732850  0.47309850  0.16207900  1
  C  87  1  0.83938250  0.44100500  0.12380150  1
  C  88  1  0.86301900  0.41925300  0.12573300  1
  C  89  1  0.89430550  0.42982750  0.16642400  1
  C  90  1  0.90184950  0.46183350  0.20483500  1
  C  91  1  0.90340450  0.53802550  0.27944900  1
  C  92  1  0.89700200  0.57004250  0.30389950  1
  C  93  1  0.86686450  0.58059100  0.28317850  1
  C  94  1  0.84316300  0.55880800  0.23778900  1
  C  95  1  0.83118250  0.52474050  0.14372900  1
  C  96  1  0.79087900  0.51513200  0.11387200  1
  C  97  1  0.75912500  0.48467050  0.11516050  1
  C  98  1  0.77936650  0.47506050  0.14585800  1
  C  99  1  0.71388800  0.46446800  0.09194200  1
  C  100  1  0.68917600  0.43438200  0.09998100  1
  C  101  1  0.70941600  0.42448200  0.13105300  1
  C  102  1  0.75483500  0.44520550  0.15409350  1
  C  103  1  0.86927450  0.55459600  0.14905850  1
  C  104  1  0.86696650  0.57532150  0.12436400  1
  C  105  1  0.82599750  0.56541550  0.09421000  1
  C  106  1  0.78787050  0.53533200  0.08883250  1
  C  119  1  0.82679050  0.49990250  0.16631500  1
  C  124  1  0.31333350  0.47516550  0.62604900  1
  C  125  1  0.28249700  0.48454450  0.60559650  1
  C  126  1  0.28147900  0.51534550  0.63741350  1
  C  127  1  0.31129750  0.52471400  0.67762750  1
  C  128  1  0.31749200  0.55505350  0.71590650  1
  C  129  1  0.29383950  0.57679050  0.71398100  1
  C  130  1  0.26370400  0.56737050  0.67329150  1
  C  131  1  0.25728050  0.53648850  0.63487700  1
  C  132  1  0.25883350  0.46341300  0.56025750  1
  C  133  1  0.26638100  0.43254200  0.53580200  1
  C  134  1  0.29765500  0.42312700  0.55651900  1
  C  135  1  0.32128500  0.44483500  0.60190800  1
  C  136  1  0.38128550  0.52691150  0.69597800  1
  C  137  1  0.40152600  0.51645450  0.72582750  1
  C  138  1  0.36977150  0.48340500  0.72452850  1
  C  139  1  0.32946900  0.47295750  0.69383150  1
  C  140  1  0.37277900  0.46136800  0.74773000  1
  C  141  1  0.33465250  0.42861100  0.73967750  1
  C  142  1  0.29368450  0.41779000  0.70860950  1
  C  143  1  0.29137750  0.44018150  0.68558100  1
  C  144  1  0.40581800  0.55969650  0.69067350  1
  C  145  1  0.45123350  0.58208850  0.71538300  1
  C  146  1  0.47147400  0.57125100  0.74551900  1
  C  147  1  0.44676350  0.53848450  0.75087700  1
  C  160  1  0.33386300  0.49993850  0.67338850  1
  C  165  1  0.55554850  0.70615100  0.15284450  1
  C  166  1  0.56493200  0.68569800  0.12201300  1
  C  167  1  0.59573650  0.71751400  0.12100450  1
  C  168  1  0.60511200  0.75772900  0.15083500  1
  C  169  1  0.63544300  0.79600700  0.15702800  1
  C  170  1  0.65714650  0.79408050  0.13334400  1
  C  171  1  0.64773400  0.75339100  0.10321100  1
  C  172  1  0.61687450  0.71497950  0.09680300  1
  C  173  1  0.54380250  0.64036100  0.09834450  1
  C  174  1  0.51293900  0.61590500  0.10589200  1
  C  175  1  0.50351350  0.63662450  0.13715600  1
  C  176  1  0.52520900  0.68201250  0.16078150  1
  C  177  1  0.60728800  0.77606550  0.22081150  1
  C  178  1  0.59682950  0.80591650  0.24105300  1
  C  179  1  0.56379200  0.80463100  0.20929400  1
  C  180  1  0.55335650  0.77394500  0.16899050  1
  C  181  1  0.54176150  0.82784200  0.21230050  1
  C  182  1  0.50901950  0.81980800  0.17416550  1
  C  183  1  0.49820900  0.78874950  0.13319650  1
  C  184  1  0.52059550  0.76571250  0.13089200  1
  C  185  1  0.64006500  0.77075050  0.24534650  1
  C  186  1  0.66244900  0.79544850  0.29076750  1
  C  187  1  0.65161350  0.82558900  0.31100650  1
  C  188  1  0.61885250  0.83095650  0.28629300  1
  C  201  1  0.58032650  0.75348850  0.17338600  1
  C  206  1  0.60713350  0.29372500  0.68888850  1
  C  207  1  0.59674000  0.31418000  0.71871000  1
  C  208  1  0.56393150  0.28236500  0.71771650  1
  C  209  1  0.55356500  0.24215050  0.68689750  1
  C  210  1  0.52147500  0.20387300  0.67894700  1
  C  211  1  0.49970650  0.20580300  0.70256450  1
  C  212  1  0.51024250  0.24649300  0.73381850  1
  C  213  1  0.54224500  0.28490400  0.74136800  1
  C  214  1  0.61838700  0.35951650  0.74289250  1
  C  215  1  0.65036600  0.38397200  0.73646100  1
  C  216  1  0.66091300  0.36325250  0.70631850  1
  C  217  1  0.63918950  0.31786600  0.68266650  1
  C  218  1  0.60520550  0.22381550  0.67073100  1
  C  219  1  0.59558700  0.19395650  0.63042250  1
  C  220  1  0.56510850  0.19523600  0.59867050  1
  C  221  1  0.55548900  0.22592250  0.61891850  1
  C  222  1  0.54489950  0.17202200  0.55342850  1
  C  223  1  0.51480200  0.18005800  0.52872200  1
  C  224  1  0.50489500  0.21112100  0.54896900  1
  C  225  1  0.52562300  0.23415600  0.59439000  1
  C  226  1  0.63506900  0.22914250  0.70882250  1
  C  227  1  0.65579400  0.20444450  0.70650750  1
  C  228  1  0.64588450  0.17429650  0.66553400  1
  C  229  1  0.61579200  0.16891850  0.62740650  1
  C  242  1  0.58034850  0.24638750  0.66634400  1
  C  493  1  0.29705800  0.87987050  0.57575950  1
  C  494  1  0.28603400  0.90431750  0.55762450  1
  C  495  1  0.30872000  0.94972200  0.58329300  1
  C  496  1  0.34232100  0.97110800  0.62630500  1
  C  497  1  0.35279400  0.94665800  0.64496700  1
  C  498  1  0.32947200  0.90118100  0.61930800  1
  C  500  1  0.36916900  0.01638750  0.64665850  1
  C  501  1  0.40540200  0.03412750  0.64181950  1
  C  502  1  0.43081650  0.07942250  0.66295800  1
  C  503  1  0.42138250  0.10779250  0.68830300  1
  C  504  1  0.38523800  0.08948300  0.69309600  1
  C  505  1  0.35959950  0.04408300  0.67218250  1
  C  521  1  0.28029650  0.83616950  0.55072400  1
  C  522  1  0.44752900  0.15243100  0.70798200  1
  C  525  1  0.86354400  0.43906700  0.58305300  1
  C  526  1  0.87447900  0.43187100  0.61847300  1
  C  527  1  0.85176600  0.43485800  0.64116200  1
  C  528  1  0.81823050  0.44436100  0.62897250  1
  C  529  1  0.80785150  0.45263650  0.59410500  1
  C  530  1  0.83119850  0.45029250  0.57197700  1
  C  532  1  0.79134900  0.43788150  0.64737150  1
  C  533  1  0.75498850  0.39685900  0.62875250  1
  C  534  1  0.72956200  0.39258700  0.64862100  1
  C  535  1  0.73911950  0.42731850  0.68654100  1
  C  536  1  0.77537950  0.46820650  0.70449800  1
  C  537  1  0.80102800  0.47292950  0.68474350  1
  C  553  1  0.88033200  0.43080100  0.55613500  1
  C  554  1  0.71298000  0.42084200  0.70503200  1
  C  557  1  0.85625250  0.12000800  0.25665450  1
  C  558  1  0.81366050  0.09554950  0.22120300  1
  C  559  1  0.79393900  0.05014650  0.19849350  1
  C  560  1  0.81558850  0.02877200  0.21069650  1
  C  561  1  0.85870750  0.05323200  0.24559850  1
  C  562  1  0.87851300  0.09871050  0.26774750  1
  C  564  1  0.79068200  0.98349150  0.19227450  1
  C  565  1  0.76816000  0.96574400  0.21080600  1
  C  566  1  0.74401150  0.92044700  0.19092550  1
  C  567  1  0.74093600  0.89208700  0.15308400  1
  C  568  1  0.76398150  0.91039900  0.13521050  1
  C  569  1  0.78846150  0.95580050  0.15497300  1
  C  585  1  0.87491500  0.16371250  0.28358850  1
  C  586  1  0.71597550  0.84745000  0.13458650  1
  C  589  1  0.30440400  0.56081850  0.26397950  1
  C  590  1  0.34699350  0.56795050  0.28211900  1
  C  591  1  0.36672200  0.56496150  0.25644350  1
  C  592  1  0.34508250  0.55552300  0.21342150  1
  C  593  1  0.30196650  0.54731650  0.19476200  1
  C  594  1  0.28215350  0.54965900  0.22042550  1
  C  596  1  0.36999950  0.56201000  0.19305850  1
  C  597  1  0.39254150  0.60307000  0.19785650  1
  C  598  1  0.41669250  0.60733950  0.17671000  1
  C  599  1  0.41974650  0.57256750  0.15140100  1
  C  600  1  0.39668050  0.53164250  0.14664700  1
  C  601  1  0.37219850  0.52692350  0.16756700  1
  C  617  1  0.28573950  0.56909650  0.28901700  1
  C  618  1  0.44470550  0.57903200  0.13172150  1
  C  621  1  0.64118450  0.34403000  0.14387850  1
  C  622  1  0.64829900  0.36216100  0.18646300  1
  C  623  1  0.64531200  0.33648450  0.20618850  1
  C  624  1  0.63588750  0.29346600  0.18454850  1
  C  625  1  0.62769500  0.27481150  0.14143450  1
  C  626  1  0.63003800  0.30047950  0.12162650  1
  C  628  1  0.64237200  0.27310150  0.20946550  1
  C  629  1  0.68342950  0.27789450  0.23201700  1
  C  630  1  0.68769750  0.25675000  0.25616950  1
  C  631  1  0.65292450  0.23144800  0.25922150  1
  C  632  1  0.61200050  0.22669550  0.23614300  1
  C  633  1  0.60728400  0.24761250  0.21165750  1
  C  649  1  0.64945700  0.36907000  0.12521700  1
  C  650  1  0.65938800  0.21177500  0.28418700  1
  C  653  1  0.20040500  0.33674950  0.69578750  1
  C  654  1  0.17596300  0.30125600  0.65321700  1
  C  655  1  0.13056050  0.27853700  0.63348450  1
  C  656  1  0.10917050  0.29077100  0.65509850  1
  C  657  1  0.13361850  0.32571850  0.69819700  1
  C  658  1  0.17909500  0.34787450  0.71801550  1
  C  660  1  0.06389000  0.27232650  0.63016950  1
  C  661  1  0.04613100  0.29077800  0.60754000  1
  C  662  1  0.00083500  0.27089200  0.58338800  1
  C  663  1  0.97248150  0.23312250  0.58041700  1
  C  664  1  0.99081100  0.21532950  0.60356750  1
  C  665  1  0.03621350  0.23509850  0.62805000  1
  C  681  1  0.24410700  0.36368200  0.71445100  1
  C  682  1  0.92784150  0.21462500  0.55546350  1
  C  685  1  0.51945000  0.66310100  0.70311900  1
  C  686  1  0.51239700  0.69860900  0.71418700  1
  C  687  1  0.51537800  0.72132900  0.69150100  1
  C  688  1  0.52473400  0.70908000  0.65786000  1
  C  689  1  0.53286450  0.67411700  0.64734450  1
  C  690  1  0.53053150  0.65196100  0.67066650  1
  C  692  1  0.51824800  0.72753100  0.63103000  1
  C  693  1  0.47715850  0.70910500  0.59484450  1
  C  694  1  0.47289200  0.72899400  0.56943500  1
  C  695  1  0.50769700  0.76674150  0.57882750  1
  C  696  1  0.54865050  0.78451100  0.61492650  1
  C  697  1  0.55336350  0.76473750  0.64055600  1
  C  713  1  0.51118800  0.63617200  0.71989500  1
  C  714  1  0.50124200  0.78524300  0.55268700  1
  C  717  1  0.96024800  0.65577250  0.13659150  1
  C  718  1  0.98471000  0.63764000  0.12559500  1
  C  719  1  0.03011200  0.66332500  0.14828900  1
  C  720  1  0.05147950  0.70634900  0.18186250  1
  C  721  1  0.02701050  0.72500350  0.19230400  1
  C  722  1  0.98153550  0.69932800  0.16897650  1
  C  724  1  0.09675900  0.72672500  0.20871800  1
  C  725  1  0.11451850  0.72195500  0.24499950  1
  C  726  1  0.15981650  0.74311100  0.27041550  1
  C  727  1  0.18816600  0.76839800  0.26093200  1
  C  728  1  0.16983850  0.77312650  0.22474300  1
  C  729  1  0.12443700  0.75220000  0.19910500  1
  C  745  1  0.91654650  0.63072950  0.11981800  1
  C  746  1  0.23280250  0.78808100  0.28707350  1
  C  749  1  0.41712350  0.77589900  0.03990450  1
  C  750  1  0.38169150  0.73329750  0.01543200  1
  C  751  1  0.35899050  0.71358750  0.97003000  1
  C  752  1  0.37118400  0.73525750  0.94867050  1
  C  753  1  0.40606700  0.77838800  0.97314800  1
  C  754  1  0.42820700  0.79818100  0.01862600  1
  C  756  1  0.35277500  0.71036300  0.90338900  1
  C  757  1  0.37135350  0.68790050  0.88564100  1
  C  758  1  0.35148150  0.66375600  0.84034250  1
  C  759  1  0.31360200  0.66062450  0.81198250  1
  C  760  1  0.29568400  0.68361500  0.83029600  1
  C  761  1  0.31543850  0.70809200  0.87569750  1
  C  777  1  0.44405400  0.79455250  0.08360850  1
  C  778  1  0.29511100  0.63565850  0.76734650  1
  C  781  1  0.42446300  0.22398450  0.48073450  1
  C  782  1  0.44259900  0.26658600  0.48790000  1
  C  783  1  0.41691300  0.28630500  0.48490700  1
  C  784  1  0.37388300  0.26464400  0.47543100  1
  C  785  1  0.35522750  0.22151550  0.46719200  1
  C  786  1  0.38090400  0.20171400  0.46954000  1
  C  788  1  0.35350100  0.28954700  0.48191200  1
  C  789  1  0.35822650  0.31202900  0.52295250  1
  C  790  1  0.33707850  0.33618050  0.52722000  1
  C  791  1  0.31183950  0.33929600  0.49246150  1
  C  792  1  0.30715100  0.31628550  0.45155550  1
  C  793  1  0.32807250  0.29180150  0.44683900  1
  C  809  1  0.44950700  0.20532600  0.48901300  1
  C  810  1  0.29217000  0.36426650  0.49892750  1
  C  813  1  0.73623700  0.21664600  0.79978800  1
  C  814  1  0.71810650  0.20563000  0.82423850  1
  C  815  1  0.74378150  0.22831700  0.86964250  1
  C  816  1  0.78679350  0.26190750  0.89102400  1
  C  817  1  0.80544850  0.27236950  0.86656700  1
  C  818  1  0.77978400  0.24904850  0.82109050  1
  C  820  1  0.80715600  0.28875950  0.93630850  1
  C  821  1  0.80234000  0.32501250  0.95405750  1
  C  822  1  0.82348200  0.35042900  0.99935500  1
  C  823  1  0.84880700  0.34097350  0.02771750  1
  C  824  1  0.85357750  0.30481200  0.00939850  1
  C  825  1  0.83266150  0.27917400  0.96399550  1
  C  841  1  0.71119750  0.19988100  0.75608450  1
  C  842  1  0.86848150  0.36711600  0.07235550  1
  C  845  1  0.74351100  0.78322650  0.35899950  1
  C  846  1  0.77900450  0.79428950  0.35193000  1
  C  847  1  0.80173300  0.77160950  0.35490950  1
  C  848  1  0.78950650  0.73797900  0.36427850  1
  C  849  1  0.75455700  0.72746600  0.37242300  1
  C  850  1  0.73239250  0.75078300  0.37009050  1
  C  852  1  0.80795950  0.71114750  0.35778400  1
  C  853  1  0.78952900  0.67496300  0.31669100  1
  C  854  1  0.80942050  0.64955500  0.31242150  1
  C  855  1  0.84717150  0.65894300  0.34722450  1
  C  856  1  0.86494450  0.69504100  0.38817950  1
  C  857  1  0.84517200  0.72067350  0.39289950  1
  C  873  1  0.71656750  0.79998950  0.35072900  1
  C  874  1  0.86566900  0.63279650  0.34076650  1
  H  25  1  0.24367750  0.57599700  0.33991350  1
  H  26  1  0.23008200  0.61862650  0.39141450  1
  H  27  1  0.22745900  0.67812300  0.44831200  1
  H  28  1  0.23630150  0.74320650  0.49980500  1
  H  29  1  0.33146300  0.81806700  0.48110800  1
  H  30  1  0.33720700  0.68987950  0.35862050  1
  H  31  1  0.38256550  0.74051250  0.48550500  1
  H  32  1  0.49723750  0.83389750  0.50537700  1
  H  33  1  0.45503450  0.84466500  0.45037850  1
  H  34  1  0.25524850  0.73655050  0.35422300  1
  H  35  1  0.39451700  0.84416050  0.38935550  1
  H  36  1  0.32875350  0.83135450  0.33434900  1
  H  66  1  0.91695750  0.25667300  0.33254950  1
  H  67  1  0.93055850  0.32175850  0.38879500  1
  H  68  1  0.93317850  0.38126200  0.45092650  1
  H  69  1  0.92432950  0.42389500  0.50716950  1
  H  70  1  0.82916200  0.31001900  0.48683700  1
  H  71  1  0.82341800  0.18182100  0.35287600  1
  H  72  1  0.77806350  0.26334500  0.35818850  1
  H  73  1  0.66339500  0.16850850  0.33686850  1
  H  74  1  0.70560100  0.15570850  0.38983350  1
  H  75  1  0.90538850  0.25936700  0.48152450  1
  H  76  1  0.76611850  0.15520700  0.44984550  1
  H  77  1  0.83188550  0.16596150  0.50279900  1
  H  107  1  0.82359350  0.57981500  0.07580150  1
  H  108  1  0.75850900  0.52833900  0.06695400  1
  H  109  1  0.69900550  0.47146050  0.06956900  1
  H  110  1  0.65636900  0.41998550  0.08317450  1
  H  111  1  0.77023750  0.43868550  0.17674000  1
  H  112  1  0.89843900  0.56112000  0.17099000  1
  H  113  1  0.81692000  0.43424600  0.09477600  1
  H  114  1  0.91176400  0.41441350  0.16830850  1
  H  115  1  0.92456200  0.46942550  0.23406850  1
  H  116  1  0.82089950  0.56556900  0.22207850  1
  H  117  1  0.92506250  0.53045200  0.29457750  1
  H  118  1  0.91431850  0.58548050  0.33677200  1
  H  148  1  0.50428050  0.58726650  0.76394600  1
  H  149  1  0.46164400  0.53099550  0.77275150  1
  H  150  1  0.40214150  0.46885200  0.77009950  1
  H  151  1  0.33705700  0.41259650  0.75647150  1
  H  152  1  0.26221300  0.43294550  0.66293550  1
  H  153  1  0.39041500  0.56694800  0.66875900  1
  H  154  1  0.33976700  0.56162450  0.74493250  1
  H  155  1  0.24641250  0.58295150  0.67140800  1
  H  156  1  0.23564100  0.52997100  0.60564400  1
  H  157  1  0.34374450  0.43826850  0.61761400  1
  H  158  1  0.23612700  0.46993850  0.54513150  1
  H  159  1  0.24892800  0.41697050  0.50292950  1
  H  189  1  0.66762050  0.84400450  0.34381700  1
  H  190  1  0.61136450  0.85283350  0.30117500  1
  H  191  1  0.54923850  0.85020750  0.24166100  1
  H  192  1  0.49301750  0.83661700  0.17656950  1
  H  193  1  0.51337050  0.74307900  0.10172750  1
  H  194  1  0.64731450  0.74882950  0.22994300  1
  H  195  1  0.64199400  0.82503050  0.17928750  1
  H  196  1  0.66329800  0.75150800  0.08590600  1
  H  197  1  0.61034200  0.68574550  0.07514450  1
  H  198  1  0.51864900  0.69771750  0.18324650  1
  H  199  1  0.55034600  0.62523600  0.07565500  1
  H  200  1  0.49738150  0.58303500  0.08845050  1
  H  230  1  0.66028400  0.15588550  0.66312350  1
  H  231  1  0.60879250  0.14703900  0.59804150  1
  H  232  1  0.55189950  0.14965750  0.53854400  1
  H  233  1  0.50039650  0.16324950  0.49591300  1
  H  234  1  0.51909800  0.25679550  0.60979950  1
  H  235  1  0.64159200  0.25107050  0.73799050  1
  H  236  1  0.51472150  0.17484750  0.65648700  1
  H  237  1  0.49479850  0.24837900  0.75124750  1
  H  238  1  0.54979500  0.31413850  0.76404450  1
  H  239  1  0.64595750  0.30215750  0.66041000  1
  H  240  1  0.61080450  0.37464350  0.76454400  1
  H  241  1  0.66577000  0.41684100  0.75375000  1
  H  499  1  0.33791450  0.88340800  0.63201350  1
  H  506  1  0.45712100  0.09191250  0.65963650  1
  H  507  1  0.33353900  0.03119800  0.67572600  1
  H  508  1  0.30198850  0.96732100  0.56943250  1
  H  510  1  0.40031600  0.97824200  0.60242000  1
  H  511  1  0.44161550  0.02250300  0.61483150  1
  H  513  1  0.39198400  0.94801650  0.69813550  1
  H  514  1  0.40190450  0.99636450  0.70494300  1
  H  523  1  0.44879300  0.17232950  0.73377950  1
  H  524  1  0.26292000  0.81558300  0.55691200  1
  H  531  1  0.82282250  0.45462000  0.54580150  1
  H  538  1  0.70316700  0.36300150  0.63472350  1
  H  539  1  0.82718150  0.50249700  0.69801250  1
  H  540  1  0.85842950  0.42766900  0.66545250  1
  H  542  1  0.75998100  0.36258100  0.57786000  1
  H  543  1  0.71858950  0.33373250  0.58073000  1
  H  545  1  0.76879850  0.46677800  0.55634750  1
  H  546  1  0.75880700  0.46362350  0.59472650  1
  H  555  1  0.71164050  0.44535850  0.72359100  1
  H  556  1  0.89773000  0.45437400  0.55294700  1
  H  563  1  0.90899900  0.11649000  0.29394700  1
  H  570  1  0.72824200  0.90795200  0.20476700  1
  H  571  1  0.80484750  0.96869050  0.14176800  1
  H  572  1  0.76247250  0.03253850  0.17417700  1
  H  574  1  0.78468500  0.02162500  0.26163900  1
  H  575  1  0.75287950  0.97735900  0.25870250  1
  H  577  1  0.91054800  0.05189250  0.28340350  1
  H  578  1  0.86901200  0.00353800  0.24499100  1
  H  587  1  0.72191250  0.82755500  0.11599850  1
  H  588  1  0.90168200  0.18429650  0.28679050  1
  H  595  1  0.25167100  0.54538050  0.20771750  1
  H  602  1  0.43247800  0.63695650  0.18000050  1
  H  603  1  0.35579550  0.49732650  0.16405300  1
  H  604  1  0.39818600  0.57210550  0.27030450  1
  H  606  1  0.37603250  0.63738200  0.23722750  1
  H  607  1  0.40785300  0.66625600  0.22478500  1
  H  609  1  0.25013850  0.53329600  0.14158150  1
  H  610  1  0.29167600  0.53641350  0.13476850  1
  H  619  1  0.43881600  0.55449500  0.10593200  1
  H  620  1  0.25903650  0.54549800  0.28289850  1
  H  627  1  0.62577100  0.28777650  0.09114650  1
  H  634  1  0.71731300  0.26004100  0.27196400  1
  H  635  1  0.57768750  0.24410000  0.19524750  1
  H  636  1  0.65244300  0.35033900  0.23765000  1
  H  638  1  0.71774450  0.31726350  0.21551400  1
  H  639  1  0.74661700  0.30481950  0.24734350  1
  H  641  1  0.61369900  0.22164250  0.08961050  1
  H  642  1  0.61680600  0.21482350  0.13114350  1
  H  651  1  0.63486050  0.18596350  0.27826600  1
  H  652  1  0.62589550  0.36288250  0.09843700  1
  H  659  1  0.19686250  0.37410350  0.74848300  1
  H  666  1  0.98833350  0.28467800  0.56754050  1
  H  667  1  0.04911250  0.22195400  0.64451850  1
  H  668  1  0.11296350  0.25418750  0.60203300  1
  H  670  1  0.10199950  0.34154900  0.62397250  1
  H  671  1  0.05772750  0.33855600  0.59209350  1
  H  673  1  0.13225700  0.36358700  0.74998800  1
  H  674  1  0.08391050  0.32514400  0.70845650  1
  H  683  1  0.90795150  0.19597450  0.56135300  1
  H  684  1  0.26467900  0.36697100  0.74129000  1
  H  691  1  0.53475500  0.62572200  0.66219500  1
  H  698  1  0.44325300  0.71522750  0.54316850  1
  H  699  1  0.58298000  0.77786350  0.66658150  1
  H  700  1  0.50829200  0.74568950  0.69826550  1
  H  702  1  0.44281400  0.65835200  0.59996200  1
  H  703  1  0.41392250  0.66136500  0.55870150  1
  H  705  1  0.54674750  0.63622600  0.60808650  1
  H  706  1  0.54366850  0.67467700  0.59819350  1
  H  715  1  0.52578450  0.80390250  0.55145400  1
  H  716  1  0.53470350  0.63277800  0.73707550  1
  H  723  1  0.96375250  0.71203200  0.17739550  1
  H  730  1  0.17232050  0.73983750  0.29675400  1
  H  731  1  0.11153850  0.75569300  0.17300950  1
  H  732  1  0.04772400  0.64947100  0.14158000  1
  H  734  1  0.05865200  0.68259550  0.23995750  1
  H  735  1  0.10292650  0.69506350  0.28128900  1
  H  737  1  0.02833850  0.77817700  0.23144350  1
  H  738  1  0.07669650  0.78500250  0.24138700  1
  H  747  1  0.25269200  0.81388050  0.28833850  1
  H  748  1  0.89595800  0.63691500  0.10243600  1
  H  755  1  0.45439500  0.82867650  0.03641850  1
  H  762  1  0.36535150  0.64802650  0.82784300  1
  H  763  1  0.30220200  0.72443800  0.88859000  1
  H  764  1  0.33468900  0.68211600  0.95240900  1
  H  766  1  0.42221200  0.70447050  0.94152150  1
  H  767  1  0.41931350  0.67270750  0.89725400  1
  H  769  1  0.44384700  0.83025550  0.97183550  1
  H  770  1  0.40545050  0.78872200  0.92346950  1
  H  779  1  0.27652000  0.64159150  0.74744950  1
  H  780  1  0.44715000  0.82125250  0.10420150  1
  H  787  1  0.36819800  0.17122150  0.46523850  1
  H  794  1  0.34031750  0.35192500  0.55682050  1
  H  795  1  0.32461050  0.27544200  0.41725650  1
  H  796  1  0.43076900  0.31777650  0.49207450  1
  H  798  1  0.39754400  0.29546950  0.55725650  1
  H  799  1  0.38505150  0.32725150  0.58611500  1
  H  801  1  0.30204150  0.16965800  0.45311050  1
  H  802  1  0.29521800  0.21119650  0.45624250  1
  H  811  1  0.26635350  0.35834450  0.47439900  1
  H  812  1  0.44340200  0.17862650  0.46540850  1
  H  819  1  0.79248650  0.25748300  0.80331350  1
  H  826  1  0.82017850  0.37674600  0.01185350  1
  H  827  1  0.83618850  0.25309850  0.95110300  1
  H  828  1  0.72992700  0.22159500  0.88724800  1
  H  830  1  0.76295400  0.31994200  0.89817700  1
  H  831  1  0.77538500  0.36125600  0.94244800  1
  H  833  1  0.85861400  0.31154250  0.86791850  1
  H  834  1  0.86543100  0.32146900  0.91627100  1
  H  843  1  0.89429150  0.36839550  0.09225200  1
  H  844  1  0.71737450  0.18248800  0.73549150  1
  H  851  1  0.70616200  0.74231250  0.37432350  1
  H  858  1  0.79564750  0.62328550  0.28277800  1
  H  859  1  0.85830050  0.74669800  0.42251950  1
  H  860  1  0.82608400  0.77837050  0.34781250  1
  H  862  1  0.73876900  0.68008300  0.28235500  1
  H  863  1  0.74178050  0.63882150  0.25345500  1
  H  865  1  0.71669450  0.68821800  0.38632450  1
  H  866  1  0.75514600  0.67832600  0.38323800  1
  H  875  1  0.88433100  0.63156350  0.36530850  1
  H  876  1  0.71327800  0.81727250  0.37427750  1
  N  38  1  0.29184900  0.82394750  0.52288450  1
  N  39  1  0.24841700  0.77368700  0.31069300  1
  N  40  1  0.46323100  0.77722350  0.52904050  1
  N  41  1  0.30132200  0.60849100  0.31682400  1
  N  79  1  0.86876850  0.39140800  0.53234350  1
  N  80  1  0.91222000  0.22264600  0.52547000  1
  N  81  1  0.69739850  0.22619050  0.31421000  1
  N  82  1  0.85930150  0.17593450  0.30736900  1
  N  120  1  0.68884950  0.39691150  0.14084300  1
  N  121  1  0.85763100  0.60913350  0.30274850  1
  N  122  1  0.85407300  0.39072350  0.08796150  1
  N  123  1  0.90432950  0.60289350  0.13137300  1
  N  161  1  0.25632400  0.38741650  0.69879850  1
  N  162  1  0.30659700  0.39429450  0.53694150  1
  N  163  1  0.30308900  0.60562150  0.75175350  1
  N  164  1  0.47180450  0.61247650  0.70841600  1
  N  202  1  0.46787350  0.77897550  0.09583000  1
  N  203  1  0.47469600  0.61704800  0.14611000  1
  N  204  1  0.68595800  0.83185050  0.14258350  1
  N  205  1  0.69282600  0.78846650  0.31133750  1
  N  243  1  0.47730600  0.22090100  0.52841000  1
  N  244  1  0.68943250  0.38282950  0.69706900  1
  N  245  1  0.47116450  0.16803350  0.69359900  1
  N  246  1  0.68336750  0.21144650  0.74386900  1
  N  509  1  0.41668600  0.00950200  0.61771700  1
  N  512  1  0.38518400  0.96531400  0.68601300  1
  N  515  1  0.25368200  0.88311950  0.51389450  1
  N  516  1  0.37493750  0.11666050  0.71848200  1
  N  541  1  0.74360100  0.36151450  0.59273950  1
  N  544  1  0.77553400  0.46139450  0.58040550  1
  N  547  1  0.90676900  0.42041050  0.62960350  1
  N  548  1  0.78579250  0.50383900  0.74209250  1
  N  573  1  0.76872950  0.99036550  0.24675000  1
  N  576  1  0.88112100  0.03458750  0.25931950  1
  N  579  1  0.79110800  0.11673350  0.21005850  1
  N  580  1  0.76213450  0.88322400  0.09769250  1
  N  605  1  0.39198900  0.63844950  0.22192550  1
  N  608  1  0.27956250  0.53863100  0.15370450  1
  N  611  1  0.36953700  0.57935600  0.32585500  1
  N  612  1  0.39850150  0.49596350  0.12129500  1
  N  637  1  0.71880950  0.30196100  0.23147250  1
  N  640  1  0.61902400  0.23376000  0.11903200  1
  N  643  1  0.65968450  0.40589100  0.20900350  1
  N  644  1  0.57632100  0.20135000  0.23796200  1
  N  669  1  0.07074100  0.32665550  0.60801350  1
  N  672  1  0.11495900  0.33947150  0.72057550  1
  N  675  1  0.19716150  0.29007850  0.63069800  1
  N  676  1  0.96365300  0.17788850  0.60183350  1
  N  701  1  0.44174850  0.67324900  0.58359750  1
  N  704  1  0.54146550  0.66035050  0.61491600  1
  N  707  1  0.50108100  0.70980400  0.74658200  1
  N  708  1  0.58436350  0.82192850  0.62518600  1
  N  733  1  0.08991200  0.69790400  0.25632800  1
  N  736  1  0.04564850  0.76606050  0.22466600  1
  N  739  1  0.96353350  0.59390600  0.09327050  1
  N  740  1  0.19700100  0.79845900  0.21439700  1
  N  765  1  0.40733050  0.68851950  0.91026100  1
  N  768  1  0.41977700  0.80082400  0.95451900  1
  N  771  1  0.37056150  0.71072600  0.03660250  1
  N  772  1  0.25812950  0.68171100  0.80311850  1
  N  797  1  0.38223700  0.31142550  0.55831950  1
  N  800  1  0.31416150  0.19908900  0.45846750  1
  N  803  1  0.48634050  0.28914900  0.49933950  1
  N  804  1  0.28186800  0.31817200  0.41589400  1
  N  829  1  0.77825600  0.33631450  0.92944050  1
  N  832  1  0.84649600  0.30475100  0.88522100  1
  N  835  1  0.67437900  0.17328800  0.80304600  1
  N  836  1  0.87894400  0.29449250  0.03656850  1
  N  861  1  0.75366700  0.66371700  0.28128400  1
  N  864  1  0.74081000  0.69504500  0.38103500  1
  N  867  1  0.79017200  0.82667200  0.34059600  1
  N  868  1  0.90236800  0.70529950  0.42389450  1
  O  517  1  0.33810700  0.11043750  0.69662850  1
  O  518  1  0.22322300  0.89055250  0.51037150  1
  O  519  1  0.37656450  0.11120000  0.74970350  1
  O  520  1  0.26854700  0.89440900  0.49207800  1
  O  549  1  0.82258450  0.51861750  0.77264800  1
  O  550  1  0.93721650  0.44728700  0.66751450  1
  O  551  1  0.78434350  0.53358050  0.73519800  1
  O  552  1  0.89182350  0.38370400  0.62596150  1
  O  581  1  0.74645700  0.88945850  0.06710550  1
  O  582  1  0.78012700  0.10929650  0.17216150  1
  O  583  1  0.79880250  0.88868250  0.10471600  1
  O  584  1  0.75801650  0.10543900  0.21365750  1
  O  613  1  0.41416050  0.48102500  0.14318250  1
  O  614  1  0.38051300  0.55243500  0.32940000  1
  O  615  1  0.36182850  0.46634050  0.09008400  1
  O  616  1  0.40263100  0.61604250  0.34765450  1
  O  645  1  0.56138300  0.22324200  0.25361300  1
  O  646  1  0.63275200  0.40942250  0.21996250  1
  O  647  1  0.54670100  0.17013750  0.20128450  1
  O  648  1  0.69636550  0.42769600  0.24211350  1
  O  677  1  0.96988100  0.14727150  0.58624450  1
  O  678  1  0.18974050  0.25219300  0.61977850  1
  O  679  1  0.96913000  0.18503400  0.63853400  1
  O  680  1  0.18586050  0.29361400  0.59756650  1
  O  709  1  0.59942600  0.85255250  0.66203750  1
  O  710  1  0.52806550  0.74768650  0.77704100  1
  O  711  1  0.61389300  0.81474850  0.62348750  1
  O  712  1  0.46442250  0.70628850  0.73176800  1
  O  741  1  0.19076800  0.77655100  0.17757600  1
  O  742  1  0.97096700  0.59036200  0.06280800  1
  O  743  1  0.19152650  0.82966300  0.21596250  1
  O  744  1  0.97484200  0.57211550  0.10816750  1
  O  773  1  0.22755950  0.66598450  0.80935300  1
  O  774  1  0.33265950  0.69971850  0.02915800  1
  O  775  1  0.26508650  0.71836500  0.80857550  1
  O  776  1  0.37418300  0.67764600  0.02529600  1
  O  805  1  0.30381800  0.33387900  0.40103200  1
  O  806  1  0.48990650  0.30015200  0.47244350  1
  O  807  1  0.25066900  0.28151350  0.38621350  1
  O  808  1  0.50811500  0.32223050  0.53603850  1
  O  837  1  0.85707300  0.25766550  0.03033950  1
  O  838  1  0.67085300  0.14282600  0.81047500  1
  O  839  1  0.91015850  0.29609450  0.03110300  1
  O  840  1  0.65257150  0.18816400  0.81434550  1
  O  869  1  0.93298850  0.74214750  0.43895500  1
  O  870  1  0.82805300  0.85713450  0.36756650  1
  O  871  1  0.89519750  0.70360150  0.45342700  1
  O  872  1  0.78663750  0.81184650  0.30392900  1
