# generated using pymatgen
data_Cu3H16C16(N12Cl)2
_symmetry_space_group_name_H-M   'P 1'
_cell_length_a   14.89325000
_cell_length_b   18.11237000
_cell_length_c   18.11325000
_cell_angle_alpha   89.76519000
_cell_angle_beta   89.74013000
_cell_angle_gamma   89.74689000
_symmetry_Int_Tables_number   1
_chemical_formula_structural   Cu3H16C16(N12Cl)2
_chemical_formula_sum   'Cu12 H64 C64 N96 Cl8'
_cell_volume   4885.94783599
_cell_formula_units_Z   4
loop_
 _symmetry_equiv_pos_site_id
 _symmetry_equiv_pos_as_xyz
  1  'x, y, z'
loop_
 _atom_site_type_symbol
 _atom_site_label
 _atom_site_symmetry_multiplicity
 _atom_site_fract_x
 _atom_site_fract_y
 _atom_site_fract_z
 _atom_site_occupancy
  Cu  Cu0  1  0.27595000  0.01072000  0.48158000  1
  Cu  Cu1  1  0.27577000  0.48157000  0.01101000  1
  Cu  Cu2  1  0.78041000  0.01717000  0.01734000  1
  Cu  Cu3  1  0.77381000  0.48615000  0.48587000  1
  Cu  Cu4  1  0.22061000  0.98275000  0.98277000  1
  Cu  Cu5  1  0.23144000  0.51325000  0.51399000  1
  Cu  Cu6  1  0.72249000  0.98892000  0.51836000  1
  Cu  Cu7  1  0.72190000  0.51838000  0.98903000  1
  Cu  Cu8  1  0.49845000  0.00073000  0.49876000  1
  Cu  Cu9  1  0.49783000  0.49863000  0.00129000  1
  Cu  Cu10  1  0.00179000  0.99872000  0.99892000  1
  Cu  Cu11  1  0.00275000  0.50136000  0.50172000  1
  H  H12  1  0.51278000  0.98396000  0.68132000  1
  H  H13  1  0.22897000  0.02836000  0.67021000  1
  H  H14  1  0.45548000  0.11126000  0.79276000  1
  H  H15  1  0.26264000  0.93974000  0.81929000  1
  H  H16  1  0.50935000  0.53755000  0.82191000  1
  H  H17  1  0.22973000  0.48840000  0.83449000  1
  H  H18  1  0.44890000  0.39196000  0.71696000  1
  H  H19  1  0.26681000  0.56575000  0.67018000  1
  H  H20  1  0.01147000  0.81717000  0.97260000  1
  H  H21  1  0.72948000  0.83365000  0.02035000  1
  H  H22  1  0.95425000  0.71373000  0.10914000  1
  H  H23  1  0.76471000  0.67530000  0.93908000  1
  H  H24  1  0.00936000  0.68325000  0.52917000  1
  H  H25  1  0.72807000  0.66807000  0.48185000  1
  H  H26  1  0.94905000  0.78675000  0.39199000  1
  H  H27  1  0.76000000  0.82656000  0.56313000  1
  H  H28  1  0.98823000  0.02693000  0.18166000  1
  H  H29  1  0.27074000  0.97935000  0.16728000  1
  H  H30  1  0.04522000  0.89083000  0.28669000  1
  H  H31  1  0.23477000  0.06114000  0.32429000  1
  H  H32  1  0.99033000  0.47253000  0.31896000  1
  H  H33  1  0.27285000  0.51797000  0.33023000  1
  H  H34  1  0.04999000  0.60791000  0.21288000  1
  H  H35  1  0.23968000  0.43651000  0.17428000  1
  H  H36  1  0.49021000  0.17952000  0.46210000  1
  H  H37  1  0.77003000  0.16519000  0.51191000  1
  H  H38  1  0.55106000  0.28375000  0.60815000  1
  H  H39  1  0.73405000  0.32988000  0.43444000  1
  H  H40  1  0.48720000  0.31751000  0.01640000  1
  H  H41  1  0.77072000  0.33043000  0.97185000  1
  H  H42  1  0.54464000  0.20679000  0.88884000  1
  H  H43  1  0.73781000  0.18051000  0.06011000  1
  H  H44  1  0.48746000  0.01629000  0.31780000  1
  H  H45  1  0.77098000  0.97195000  0.33030000  1
  H  H46  1  0.54477000  0.88892000  0.20716000  1
  H  H47  1  0.73785000  0.06019000  0.18042000  1
  H  H48  1  0.49047000  0.46205000  0.17996000  1
  H  H49  1  0.76991000  0.51215000  0.16531000  1
  H  H50  1  0.55138000  0.60820000  0.28336000  1
  H  H51  1  0.73363000  0.43452000  0.33018000  1
  H  H52  1  0.98847000  0.18138000  0.02675000  1
  H  H53  1  0.27081000  0.16721000  0.97987000  1
  H  H54  1  0.04548000  0.28610000  0.89082000  1
  H  H55  1  0.23461000  0.32434000  0.06119000  1
  H  H56  1  0.99078000  0.31933000  0.47135000  1
  H  H57  1  0.27289000  0.33036000  0.51679000  1
  H  H58  1  0.05048000  0.21359000  0.60780000  1
  H  H59  1  0.23920000  0.17345000  0.43656000  1
  H  H60  1  0.01175000  0.97285000  0.81705000  1
  H  H61  1  0.72968000  0.02094000  0.83359000  1
  H  H62  1  0.95456000  0.10930000  0.71329000  1
  H  H63  1  0.76489000  0.93895000  0.67555000  1
  H  H64  1  0.00946000  0.52877000  0.68367000  1
  H  H65  1  0.72780000  0.48151000  0.66831000  1
  H  H66  1  0.94914000  0.39201000  0.78734000  1
  H  H67  1  0.75955000  0.56299000  0.82643000  1
  H  H68  1  0.50947000  0.82156000  0.53781000  1
  H  H69  1  0.22988000  0.83463000  0.48870000  1
  H  H70  1  0.44868000  0.71641000  0.39175000  1
  H  H71  1  0.26665000  0.66996000  0.56554000  1
  H  H72  1  0.51267000  0.68107000  0.98394000  1
  H  H73  1  0.22892000  0.67018000  0.02782000  1
  H  H74  1  0.45566000  0.79283000  0.11107000  1
  H  H75  1  0.26263000  0.81930000  0.93974000  1
  C  C76  1  0.44520000  0.99691000  0.66328000  1
  C  C77  1  0.29892000  0.01854000  0.65640000  1
  C  C78  1  0.40477000  0.07665000  0.81911000  1
  C  C79  1  0.30841000  0.98476000  0.83203000  1
  C  C80  1  0.44464000  0.51445000  0.83600000  1
  C  C81  1  0.30124000  0.49249000  0.84503000  1
  C  C82  1  0.39995000  0.42574000  0.68707000  1
  C  C83  1  0.30969000  0.51789000  0.66246000  1
  C  C84  1  0.94682000  0.83426000  0.99414000  1
  C  C85  1  0.80027000  0.84480000  0.01537000  1
  C  C86  1  0.90497000  0.68461000  0.07566000  1
  C  C87  1  0.81011000  0.66517000  0.98496000  1
  C  C88  1  0.94540000  0.66647000  0.50809000  1
  C  C89  1  0.79934000  0.65663000  0.48646000  1
  C  C90  1  0.89950000  0.81578000  0.42534000  1
  C  C91  1  0.80546000  0.83546000  0.51700000  1
  C  C92  1  0.05342000  0.00563000  0.16481000  1
  C  C93  1  0.20022000  0.98471000  0.15581000  1
  C  C94  1  0.09420000  0.92474000  0.31550000  1
  C  C95  1  0.18853000  0.01593000  0.33488000  1
  C  C96  1  0.05524000  0.49280000  0.33507000  1
  C  C97  1  0.20189000  0.51350000  0.34279000  1
  C  C98  1  0.09943000  0.57426000  0.18434000  1
  C  C99  1  0.19365000  0.48247000  0.16511000  1
  C  C100  1  0.55459000  0.16539000  0.48568000  1
  C  C101  1  0.69842000  0.15544000  0.50778000  1
  C  C102  1  0.60026000  0.31320000  0.57405000  1
  C  C103  1  0.69077000  0.33775000  0.48171000  1
  C  C104  1  0.55444000  0.33583000  0.00325000  1
  C  C105  1  0.70059000  0.34364000  0.98164000  1
  C  C106  1  0.59563000  0.18063000  0.92340000  1
  C  C107  1  0.69193000  0.16769000  0.01514000  1
  C  C108  1  0.55468000  0.00316000  0.33599000  1
  C  C109  1  0.70086000  0.98152000  0.34382000  1
  C  C110  1  0.59576000  0.92325000  0.18075000  1
  C  C111  1  0.69198000  0.01511000  0.16780000  1
  C  C112  1  0.55468000  0.48543000  0.16548000  1
  C  C113  1  0.69824000  0.50783000  0.15533000  1
  C  C114  1  0.60065000  0.57453000  0.31323000  1
  C  C115  1  0.69100000  0.48215000  0.33779000  1
  C  C116  1  0.05356000  0.16468000  0.00546000  1
  C  C117  1  0.20033000  0.15544000  0.98468000  1
  C  C118  1  0.09451000  0.31527000  0.92436000  1
  C  C119  1  0.18918000  0.33456000  0.01525000  1
  C  C120  1  0.05526000  0.33482000  0.49272000  1
  C  C121  1  0.20187000  0.34271000  0.51283000  1
  C  C122  1  0.09998000  0.18480000  0.57435000  1
  C  C123  1  0.19352000  0.16447000  0.48254000  1
  C  C124  1  0.94698000  0.99403000  0.83434000  1
  C  C125  1  0.80047000  0.01560000  0.84476000  1
  C  C126  1  0.90523000  0.07562000  0.68448000  1
  C  C127  1  0.81052000  0.98464000  0.66531000  1
  C  C128  1  0.94522000  0.50802000  0.66648000  1
  C  C129  1  0.79901000  0.48645000  0.65699000  1
  C  C130  1  0.89995000  0.42577000  0.81619000  1
  C  C131  1  0.80575000  0.51737000  0.83573000  1
  C  C132  1  0.44452000  0.83601000  0.51500000  1
  C  C133  1  0.30140000  0.84505000  0.49337000  1
  C  C134  1  0.40022000  0.68652000  0.42600000  1
  C  C135  1  0.31009000  0.66188000  0.51798000  1
  C  C136  1  0.44515000  0.66314000  0.99728000  1
  C  C137  1  0.29885000  0.65649000  0.01842000  1
  C  C138  1  0.40472000  0.81909000  0.07650000  1
  C  C139  1  0.30854000  0.83212000  0.98459000  1
  N  N140  1  0.42261000  0.00533000  0.59378000  1
  N  N141  1  0.33182000  0.01658000  0.58907000  1
  N  N142  1  0.36821000  0.00606000  0.70615000  1
  N  N143  1  0.37683000  0.07660000  0.88823000  1
  N  N144  1  0.31501000  0.01922000  0.89576000  1
  N  N145  1  0.36453000  0.01869000  0.78155000  1
  N  N146  1  0.42927000  0.48109000  0.90242000  1
  N  N147  1  0.33927000  0.46857000  0.90828000  1
  N  N148  1  0.36442000  0.52541000  0.79808000  1
  N  N149  1  0.37395000  0.41721000  0.61728000  1
  N  N150  1  0.31651000  0.47660000  0.60218000  1
  N  N151  1  0.36064000  0.48668000  0.71553000  1
  N  N152  1  0.92747000  0.90390000  0.01244000  1
  N  N153  1  0.83747000  0.91050000  0.02445000  1
  N  N154  1  0.86612000  0.79314000  0.99099000  1
  N  N155  1  0.88060000  0.61464000  0.07946000  1
  N  N156  1  0.81955000  0.60262000  0.02214000  1
  N  N157  1  0.86231000  0.71844000  0.01657000  1
  N  N158  1  0.92687000  0.59725000  0.48835000  1
  N  N159  1  0.83653000  0.59126000  0.47698000  1
  N  N160  1  0.86425000  0.70762000  0.50993000  1
  N  N161  1  0.87156000  0.88470000  0.41932000  1
  N  N162  1  0.81114000  0.89686000  0.47749000  1
  N  N163  1  0.85963000  0.78248000  0.48578000  1
  N  N164  1  0.07380000  0.98690000  0.09552000  1
  N  N165  1  0.16406000  0.97525000  0.08985000  1
  N  N166  1  0.13344000  0.00818000  0.20675000  1
  N  N167  1  0.11874000  0.92099000  0.38541000  1
  N  N168  1  0.18020000  0.97797000  0.39720000  1
  N  N169  1  0.13756000  0.98334000  0.28139000  1
  N  N170  1  0.07581000  0.51150000  0.40393000  1
  N  N171  1  0.16626000  0.52209000  0.40871000  1
  N  N172  1  0.13524000  0.49208000  0.29268000  1
  N  N173  1  0.12775000  0.58004000  0.11553000  1
  N  N174  1  0.18847000  0.52210000  0.10376000  1
  N  N175  1  0.13969000  0.51417000  0.21800000  1
  N  N176  1  0.56997000  0.09845000  0.51789000  1
  N  N177  1  0.65977000  0.09219000  0.53041000  1
  N  N178  1  0.63563000  0.20348000  0.47545000  1
  N  N179  1  0.62730000  0.38245000  0.58313000  1
  N  N180  1  0.68508000  0.39778000  0.52394000  1
  N  N181  1  0.64015000  0.28419000  0.51341000  1
  N  N182  1  0.57652000  0.40551000  0.99493000  1
  N  N183  1  0.66729000  0.41073000  0.98347000  1
  N  N184  1  0.63191000  0.29340000  0.99420000  1
  N  N185  1  0.62363000  0.11164000  0.92322000  1
  N  N186  1  0.68563000  0.10404000  0.98050000  1
  N  N187  1  0.63621000  0.21821000  0.98097000  1
  N  N188  1  0.57680000  0.99493000  0.40571000  1
  N  N189  1  0.66744000  0.98356000  0.41095000  1
  N  N190  1  0.63211000  0.99419000  0.29354000  1
  N  N191  1  0.62348000  0.92334000  0.11157000  1
  N  N192  1  0.68553000  0.98062000  0.10410000  1
  N  N193  1  0.63587000  0.98126000  0.21824000  1
  N  N194  1  0.56950000  0.51778000  0.09866000  1
  N  N195  1  0.65941000  0.53040000  0.09212000  1
  N  N196  1  0.63569000  0.47543000  0.20342000  1
  N  N197  1  0.62706000  0.58327000  0.38267000  1
  N  N198  1  0.68466000  0.52393000  0.39801000  1
  N  N199  1  0.63930000  0.51312000  0.28450000  1
  N  N200  1  0.07367000  0.09528000  0.98711000  1
  N  N201  1  0.16387000  0.08938000  0.97566000  1
  N  N202  1  0.13358000  0.20649000  0.00878000  1
  N  N203  1  0.11869000  0.38537000  0.92096000  1
  N  N204  1  0.17952000  0.39725000  0.97846000  1
  N  N205  1  0.13682000  0.28141000  0.98375000  1
  N  N206  1  0.07566000  0.40369000  0.51276000  1
  N  N207  1  0.16592000  0.40841000  0.52344000  1
  N  N208  1  0.13573000  0.29268000  0.48923000  1
  N  N209  1  0.12807000  0.11586000  0.58067000  1
  N  N210  1  0.18858000  0.10345000  0.52269000  1
  N  N211  1  0.14009000  0.21779000  0.51393000  1
  N  N212  1  0.92751000  0.01212000  0.90396000  1
  N  N213  1  0.83743000  0.02418000  0.91048000  1
  N  N214  1  0.86642000  0.99192000  0.79313000  1
  N  N215  1  0.88075000  0.07922000  0.61458000  1
  N  N216  1  0.81953000  0.02202000  0.60281000  1
  N  N217  1  0.86249000  0.01664000  0.71856000  1
  N  N218  1  0.92621000  0.48900000  0.59731000  1
  N  N219  1  0.83579000  0.47740000  0.59155000  1
  N  N220  1  0.86426000  0.50871000  0.70788000  1
  N  N221  1  0.87140000  0.41931000  0.88483000  1
  N  N222  1  0.81074000  0.47732000  0.89697000  1
  N  N223  1  0.85886000  0.48525000  0.78249000  1
  N  N224  1  0.42926000  0.90246000  0.48081000  1
  N  N225  1  0.33953000  0.90819000  0.46821000  1
  N  N226  1  0.36434000  0.79889000  0.52670000  1
  N  N227  1  0.37317000  0.61692000  0.41673000  1
  N  N228  1  0.31575000  0.60176000  0.47611000  1
  N  N229  1  0.35957000  0.71478000  0.48573000  1
  N  N230  1  0.42237000  0.59370000  0.00563000  1
  N  N231  1  0.33143000  0.58913000  0.01687000  1
  N  N232  1  0.36816000  0.70619000  0.00589000  1
  N  N233  1  0.37691000  0.88813000  0.07655000  1
  N  N234  1  0.31489000  0.89579000  0.01932000  1
  N  N235  1  0.36434000  0.78152000  0.01874000  1
  Cl  Cl236  1  0.37529000  0.08702000  0.40396000  1
  Cl  Cl237  1  0.37529000  0.40408000  0.08736000  1
  Cl  Cl238  1  0.87280000  0.09558000  0.09544000  1
  Cl  Cl239  1  0.87847000  0.40992000  0.40939000  1
  Cl  Cl240  1  0.12627000  0.90588000  0.90584000  1
  Cl  Cl241  1  0.12041000  0.58776000  0.58812000  1
  Cl  Cl242  1  0.62541000  0.91254000  0.59713000  1
  Cl  Cl243  1  0.62550000  0.59714000  0.91223000  1
