# generated using pymatgen
data_Ba3H36C44(NO9)2
_symmetry_space_group_name_H-M   'P 1'
_cell_length_a   19.62009000
_cell_length_b   20.19540000
_cell_length_c   31.93460000
_cell_angle_alpha   77.13452000
_cell_angle_beta   83.84086000
_cell_angle_gamma   61.06770000
_symmetry_Int_Tables_number   1
_chemical_formula_structural   Ba3H36C44(NO9)2
_chemical_formula_sum   'Ba18 H216 C264 N12 O108'
_cell_volume   10796.33288344
_cell_formula_units_Z   6
loop_
 _symmetry_equiv_pos_site_id
 _symmetry_equiv_pos_as_xyz
  1  'x, y, z'
loop_
 _atom_site_type_symbol
 _atom_site_label
 _atom_site_symmetry_multiplicity
 _atom_site_fract_x
 _atom_site_fract_y
 _atom_site_fract_z
 _atom_site_occupancy
  Ba  Ba1  1  0.55280000  0.73554000  0.07064000  1.0
  Ba  Ba2  1  0.70003000  0.67937000  0.17007000  1.0
  Ba  Ba3  1  0.62029000  0.66022000  0.29505000  1.0
  Ba  Ba4  1  0.67406000  0.72389000  0.39889000  1.0
  Ba  Ba5  1  0.67080000  0.61942000  0.52187000  1.0
  Ba  Ba6  1  0.77636000  0.60496000  0.62943000  1.0
  Ba  Ba7  1  0.66991000  0.59776000  0.75218000  1.0
  Ba  Ba8  1  0.64754000  0.72546000  0.84236000  1.0
  Ba  Ba9  1  0.69979000  0.63113000  0.97610000  1.0
  Ba  Ba10  1  0.44721000  0.26445000  0.92936000  1.0
  Ba  Ba11  1  0.29998000  0.32063000  0.82993000  1.0
  Ba  Ba12  1  0.37971000  0.33978000  0.70495000  1.0
  Ba  Ba13  1  0.32594000  0.27611000  0.60111000  1.0
  Ba  Ba14  1  0.32920000  0.38058000  0.47813000  1.0
  Ba  Ba15  1  0.22365000  0.39503000  0.37057000  1.0
  Ba  Ba16  1  0.33009000  0.40223000  0.24783000  1.0
  Ba  Ba17  1  0.35246000  0.27453000  0.15764000  1.0
  Ba  Ba18  1  0.30022000  0.36886000  0.02390000  1.0
  H  H1  1  0.10865000  0.10087000  0.14425000  1.0
  H  H2  1  0.05462000  0.11807000  0.09834000  1.0
  H  H3  1  0.01527000  0.18122000  0.13546000  1.0
  H  H4  1  0.78040000  0.15947000  0.18143000  1.0
  H  H5  1  0.78767000  0.06634000  0.19235000  1.0
  H  H6  1  0.79985000  0.10468000  0.23381000  1.0
  H  H7  1  0.05138000  0.84266000  0.24693000  1.0
  H  H8  1  0.11142000  0.83467000  0.20109000  1.0
  H  H9  1  0.12813000  0.86610000  0.24435000  1.0
  H  H10  1  0.16386000  0.89771000  0.15916000  1.0
  H  H11  1  0.15665000  0.98891000  0.13573000  1.0
  H  H12  1  0.28913000  0.88537000  0.26273000  1.0
  H  H13  1  0.43392000  0.81185000  0.25754000  1.0
  H  H14  1  0.41448000  0.85816000  0.12004000  1.0
  H  H15  1  0.27307000  0.92653000  0.12470000  1.0
  H  H16  1  0.94824000  0.91255000  0.27316000  1.0
  H  H17  1  0.85426000  0.98274000  0.25256000  1.0
  H  H18  1  0.81456000  0.90995000  0.29051000  1.0
  H  H19  1  0.73779000  0.84001000  0.31170000  1.0
  H  H20  1  0.84487000  0.71126000  0.21134000  1.0
  H  H21  1  0.92225000  0.78154000  0.18925000  1.0
  H  H22  1  0.91087000  0.19133000  0.10651000  1.0
  H  H23  1  0.82518000  0.19506000  0.13265000  1.0
  H  H24  1  0.80269000  0.30138000  0.08266000  1.0
  H  H25  1  0.71924000  0.44096000  0.05575000  1.0
  H  H26  1  0.76818000  0.49115000  0.16965000  1.0
  H  H27  1  0.85313000  0.35273000  0.19636000  1.0
  H  H28  1  0.79788000  0.12970000  0.42247000  1.0
  H  H29  1  0.81986000  0.03211000  0.43674000  1.0
  H  H30  1  0.81841000  0.08088000  0.47661000  1.0
  H  H31  1  0.17252000  0.84919000  0.46021000  1.0
  H  H32  1  0.11060000  0.86140000  0.50513000  1.0
  H  H33  1  0.09552000  0.82569000  0.46358000  1.0
  H  H34  1  0.11609000  0.11199000  0.39041000  1.0
  H  H35  1  0.04593000  0.14642000  0.34920000  1.0
  H  H36  1  0.02164000  0.18741000  0.39561000  1.0
  H  H37  1  0.91492000  0.20934000  0.36781000  1.0
  H  H38  1  0.83751000  0.18653000  0.37980000  1.0
  H  H39  1  0.80356000  0.32459000  0.35306000  1.0
  H  H40  1  0.73675000  0.46539000  0.34657000  1.0
  H  H41  1  0.76771000  0.43910000  0.48196000  1.0
  H  H42  1  0.83627000  0.29672000  0.48862000  1.0
  H  H43  1  0.98816000  0.88395000  0.51049000  1.0
  H  H44  1  0.89023000  0.95334000  0.49667000  1.0
  H  H45  1  0.87648000  0.85755000  0.53480000  1.0
  H  H46  1  0.80718000  0.77992000  0.55413000  1.0
  H  H47  1  0.85904000  0.71683000  0.43037000  1.0
  H  H48  1  0.93202000  0.79209000  0.41086000  1.0
  H  H49  1  0.19450000  0.90836000  0.41097000  1.0
  H  H50  1  0.17520000  0.00078000  0.38138000  1.0
  H  H51  1  0.27742000  0.97373000  0.50872000  1.0
  H  H52  1  0.41826000  0.88265000  0.52723000  1.0
  H  H53  1  0.44830000  0.79776000  0.41133000  1.0
  H  H54  1  0.30858000  0.88508000  0.39319000  1.0
  H  H55  1  0.19551000  0.99356000  0.64274000  1.0
  H  H56  1  0.10958000  0.04520000  0.61174000  1.0
  H  H57  1  0.11421000  0.07574000  0.65816000  1.0
  H  H58  1  0.86524000  0.05474000  0.69144000  1.0
  H  H59  1  0.87440000  0.96176000  0.69571000  1.0
  H  H60  1  0.88319000  0.99286000  0.74167000  1.0
  H  H61  1  0.13664000  0.73265000  0.73470000  1.0
  H  H62  1  0.21798000  0.74107000  0.71129000  1.0
  H  H63  1  0.18907000  0.75771000  0.76419000  1.0
  H  H64  1  0.25187000  0.90803000  0.69068000  1.0
  H  H65  1  0.26043000  0.81821000  0.71858000  1.0
  H  H66  1  0.37169000  0.81172000  0.70943000  1.0
  H  H67  1  0.51159000  0.74292000  0.70063000  1.0
  H  H68  1  0.48403000  0.70090000  0.57884000  1.0
  H  H69  1  0.33980000  0.76995000  0.58763000  1.0
  H  H70  1  0.03488000  0.79977000  0.77598000  1.0
  H  H71  1  0.94051000  0.87144000  0.75653000  1.0
  H  H72  1  0.99140000  0.70526000  0.67259000  1.0
  H  H73  1  0.89454000  0.65707000  0.67840000  1.0
  H  H74  1  0.79952000  0.75229000  0.79156000  1.0
  H  H75  1  0.89508000  0.79931000  0.78678000  1.0
  H  H76  1  0.99149000  0.08986000  0.61614000  1.0
  H  H77  1  0.90900000  0.08849000  0.64336000  1.0
  H  H78  1  0.95213000  0.26419000  0.68711000  1.0
  H  H79  1  0.87484000  0.39923000  0.64928000  1.0
  H  H80  1  0.78185000  0.32508000  0.56449000  1.0
  H  H81  1  0.86008000  0.18927000  0.60134000  1.0
  H  H82  1  0.10550000  0.09177000  0.87903000  1.0
  H  H83  1  0.02659000  0.12668000  0.84408000  1.0
  H  H84  1  0.01480000  0.16917000  0.88917000  1.0
  H  H85  1  0.16415000  0.83417000  0.95816000  1.0
  H  H86  1  0.10898000  0.84557000  0.00569000  1.0
  H  H87  1  0.08678000  0.81050000  0.96624000  1.0
  H  H88  1  0.78679000  0.11635000  0.93460000  1.0
  H  H89  1  0.81246000  0.01865000  0.95566000  1.0
  H  H90  1  0.81650000  0.07612000  0.98863000  1.0
  H  H91  1  0.89571000  0.18539000  0.86377000  1.0
  H  H92  1  0.82042000  0.17900000  0.89796000  1.0
  H  H93  1  0.77034000  0.29802000  0.86192000  1.0
  H  H94  1  0.70056000  0.43957000  0.84223000  1.0
  H  H95  1  0.83252000  0.45574000  0.93485000  1.0
  H  H96  1  0.90557000  0.31163000  0.95460000  1.0
  H  H97  1  0.17702000  0.88884000  0.90296000  1.0
  H  H98  1  0.15618000  0.98054000  0.87172000  1.0
  H  H99  1  0.28995000  0.95644000  0.98487000  1.0
  H  H100  1  0.43221000  0.86929000  0.99291000  1.0
  H  H101  1  0.43070000  0.77601000  0.88477000  1.0
  H  H102  1  0.28867000  0.86107000  0.87688000  1.0
  H  H103  1  0.98953000  0.87430000  0.02036000  1.0
  H  H104  1  0.89273000  0.95122000  0.01447000  1.0
  H  H105  1  0.86948000  0.87026000  0.05882000  1.0
  H  H106  1  0.78045000  0.81737000  0.08991000  1.0
  H  H107  1  0.77983000  0.75268000  0.97084000  1.0
  H  H108  1  0.86979000  0.80503000  0.93905000  1.0
  H  H109  1  0.89136000  0.89913000  0.85575000  1.0
  H  H110  1  0.94539000  0.88192000  0.90166000  1.0
  H  H111  1  0.98474000  0.81878000  0.86454000  1.0
  H  H112  1  0.21961000  0.84052000  0.81857000  1.0
  H  H113  1  0.21233000  0.93366000  0.80765000  1.0
  H  H114  1  0.20016000  0.89532000  0.76619000  1.0
  H  H115  1  0.94863000  0.15734000  0.75307000  1.0
  H  H116  1  0.88859000  0.16532000  0.79892000  1.0
  H  H117  1  0.87187000  0.13390000  0.75565000  1.0
  H  H118  1  0.83615000  0.10228000  0.84085000  1.0
  H  H119  1  0.84336000  0.01108000  0.86427000  1.0
  H  H120  1  0.71088000  0.11462000  0.73727000  1.0
  H  H121  1  0.56608000  0.18814000  0.74246000  1.0
  H  H122  1  0.58552000  0.14183000  0.87997000  1.0
  H  H123  1  0.72694000  0.07346000  0.87531000  1.0
  H  H124  1  0.05177000  0.08744000  0.72684000  1.0
  H  H125  1  0.14574000  0.01726000  0.74744000  1.0
  H  H126  1  0.18545000  0.09005000  0.70949000  1.0
  H  H127  1  0.26222000  0.15998000  0.68830000  1.0
  H  H128  1  0.15513000  0.28873000  0.78866000  1.0
  H  H129  1  0.07776000  0.21846000  0.81075000  1.0
  H  H130  1  0.08914000  0.80866000  0.89349000  1.0
  H  H131  1  0.17482000  0.80494000  0.86736000  1.0
  H  H132  1  0.19731000  0.69862000  0.91735000  1.0
  H  H133  1  0.28076000  0.55903000  0.94425000  1.0
  H  H134  1  0.23183000  0.50884000  0.83035000  1.0
  H  H135  1  0.14687000  0.64727000  0.80365000  1.0
  H  H136  1  0.20212000  0.87029000  0.57754000  1.0
  H  H137  1  0.18015000  0.96788000  0.56326000  1.0
  H  H138  1  0.18159000  0.91911000  0.52339000  1.0
  H  H139  1  0.82749000  0.15080000  0.53979000  1.0
  H  H140  1  0.88941000  0.13859000  0.49487000  1.0
  H  H141  1  0.90448000  0.17431000  0.53642000  1.0
  H  H142  1  0.88392000  0.88800000  0.60959000  1.0
  H  H143  1  0.95407000  0.85357000  0.65080000  1.0
  H  H144  1  0.97836000  0.81258000  0.60439000  1.0
  H  H145  1  0.08508000  0.79066000  0.63219000  1.0
  H  H146  1  0.16250000  0.81346000  0.62021000  1.0
  H  H147  1  0.19645000  0.67540000  0.64694000  1.0
  H  H148  1  0.26326000  0.53460000  0.65343000  1.0
  H  H149  1  0.23229000  0.56089000  0.51804000  1.0
  H  H150  1  0.16374000  0.70327000  0.51138000  1.0
  H  H151  1  0.01185000  0.11604000  0.48952000  1.0
  H  H152  1  0.10978000  0.04666000  0.50334000  1.0
  H  H153  1  0.12352000  0.14244000  0.46520000  1.0
  H  H154  1  0.19282000  0.22007000  0.44587000  1.0
  H  H155  1  0.14097000  0.28316000  0.56964000  1.0
  H  H156  1  0.06798000  0.20790000  0.58914000  1.0
  H  H157  1  0.80551000  0.09163000  0.58903000  1.0
  H  H158  1  0.82481000  0.99922000  0.61863000  1.0
  H  H159  1  0.72259000  0.02626000  0.49129000  1.0
  H  H160  1  0.58174000  0.11735000  0.47277000  1.0
  H  H161  1  0.55170000  0.20223000  0.58867000  1.0
  H  H162  1  0.69143000  0.11491000  0.60681000  1.0
  H  H163  1  0.80450000  0.00644000  0.35726000  1.0
  H  H164  1  0.89043000  0.95480000  0.38826000  1.0
  H  H165  1  0.88580000  0.92425000  0.34184000  1.0
  H  H166  1  0.13477000  0.94525000  0.30856000  1.0
  H  H167  1  0.12561000  0.03823000  0.30430000  1.0
  H  H168  1  0.11681000  0.00713000  0.25833000  1.0
  H  H169  1  0.86337000  0.26735000  0.26531000  1.0
  H  H170  1  0.78203000  0.25893000  0.28872000  1.0
  H  H171  1  0.81094000  0.24229000  0.23582000  1.0
  H  H172  1  0.74813000  0.09196000  0.30933000  1.0
  H  H173  1  0.73957000  0.18178000  0.28142000  1.0
  H  H174  1  0.62832000  0.18827000  0.29057000  1.0
  H  H175  1  0.48841000  0.25707000  0.29937000  1.0
  H  H176  1  0.51597000  0.29909000  0.42116000  1.0
  H  H177  1  0.66021000  0.23004000  0.41237000  1.0
  H  H178  1  0.96512000  0.20022000  0.22402000  1.0
  H  H179  1  0.05949000  0.12856000  0.24347000  1.0
  H  H180  1  0.00861000  0.29474000  0.32741000  1.0
  H  H181  1  0.10546000  0.34293000  0.32161000  1.0
  H  H182  1  0.20048000  0.24771000  0.20844000  1.0
  H  H183  1  0.10492000  0.20068000  0.21322000  1.0
  H  H184  1  0.00851000  0.91013000  0.38387000  1.0
  H  H185  1  0.09100000  0.91150000  0.35665000  1.0
  H  H186  1  0.04787000  0.73580000  0.31290000  1.0
  H  H187  1  0.12516000  0.60077000  0.35072000  1.0
  H  H188  1  0.21816000  0.67492000  0.43552000  1.0
  H  H189  1  0.13993000  0.81072000  0.39866000  1.0
  H  H190  1  0.89451000  0.90823000  0.12097000  1.0
  H  H191  1  0.97342000  0.87331000  0.15593000  1.0
  H  H192  1  0.98521000  0.83083000  0.11083000  1.0
  H  H193  1  0.83586000  0.16583000  0.04184000  1.0
  H  H194  1  0.89102000  0.15443000  0.99431000  1.0
  H  H195  1  0.91323000  0.18950000  0.03377000  1.0
  H  H196  1  0.21322000  0.88364000  0.06540000  1.0
  H  H197  1  0.18754000  0.98134000  0.04434000  1.0
  H  H198  1  0.18351000  0.92387000  0.01138000  1.0
  H  H199  1  0.10430000  0.81461000  0.13623000  1.0
  H  H200  1  0.17959000  0.82100000  0.10205000  1.0
  H  H201  1  0.22966000  0.70198000  0.13808000  1.0
  H  H202  1  0.29945000  0.56043000  0.15777000  1.0
  H  H203  1  0.16748000  0.54425000  0.06516000  1.0
  H  H204  1  0.09443000  0.68837000  0.04541000  1.0
  H  H205  1  0.82299000  0.11116000  0.09705000  1.0
  H  H206  1  0.84382000  0.01945000  0.12828000  1.0
  H  H207  1  0.71006000  0.04355000  0.01513000  1.0
  H  H208  1  0.56779000  0.13071000  0.00710000  1.0
  H  H209  1  0.56931000  0.22398000  0.11523000  1.0
  H  H210  1  0.71134000  0.13892000  0.12312000  1.0
  H  H211  1  0.01048000  0.12570000  0.97965000  1.0
  H  H212  1  0.10727000  0.04878000  0.98553000  1.0
  H  H213  1  0.13053000  0.12973000  0.94118000  1.0
  H  H214  1  0.21956000  0.18262000  0.91010000  1.0
  H  H215  1  0.22018000  0.24731000  0.02917000  1.0
  H  H216  1  0.13022000  0.19496000  0.06096000  1.0
  C  C1  1  0.06118000  0.99476000  0.17708000  1.0
  C  C2  1  0.01434000  0.07252000  0.15850000  1.0
  C  C3  1  0.93291000  0.10588000  0.16418000  1.0
  C  C4  1  0.89943000  0.06489000  0.19204000  1.0
  C  C5  1  0.94848000  0.98876000  0.21347000  1.0
  C  C6  1  0.02902000  0.95256000  0.20522000  1.0
  C  C7  1  0.04998000  0.12055000  0.13267000  1.0
  C  C8  1  0.81258000  0.10076000  0.19988000  1.0
  C  C9  1  0.08207000  0.86988000  0.22570000  1.0
  C  C10  1  0.14564000  0.95552000  0.16514000  1.0
  C  C11  1  0.27174000  0.90961000  0.19448000  1.0
  C  C12  1  0.31784000  0.87793000  0.23178000  1.0
  C  C13  1  0.39835000  0.83628000  0.22870000  1.0
  C  C14  1  0.43437000  0.82707000  0.18832000  1.0
  C  C15  1  0.38767000  0.86303000  0.15147000  1.0
  C  C16  1  0.30703000  0.90272000  0.15404000  1.0
  C  C17  1  0.51901000  0.77766000  0.18363000  1.0
  C  C18  1  0.91376000  0.94439000  0.24365000  1.0
  C  C19  1  0.87175000  0.85147000  0.23753000  1.0
  C  C20  1  0.82146000  0.86681000  0.27296000  1.0
  C  C21  1  0.77883000  0.82683000  0.28516000  1.0
  C  C22  1  0.78527000  0.77191000  0.26267000  1.0
  C  C23  1  0.83749000  0.75584000  0.22796000  1.0
  C  C24  1  0.88086000  0.79440000  0.21560000  1.0
  C  C25  1  0.73650000  0.73288000  0.27445000  1.0
  C  C26  1  0.88411000  0.18466000  0.13809000  1.0
  C  C27  1  0.83352000  0.31812000  0.14146000  1.0
  C  C28  1  0.79640000  0.34262000  0.10149000  1.0
  C  C29  1  0.74977000  0.42135000  0.08616000  1.0
  C  C30  1  0.73910000  0.47605000  0.11009000  1.0
  C  C31  1  0.77723000  0.45018000  0.14990000  1.0
  C  C32  1  0.82463000  0.37236000  0.16534000  1.0
  C  C33  1  0.68607000  0.55936000  0.09473000  1.0
  C  C34  1  0.94669000  0.10005000  0.41161000  1.0
  C  C35  1  0.92043000  0.04944000  0.43613000  1.0
  C  C36  1  0.97556000  0.97466000  0.45579000  1.0
  C  C37  1  0.05596000  0.94829000  0.44889000  1.0
  C  C38  1  0.08135000  0.99859000  0.42300000  1.0
  C  C39  1  0.02708000  0.07575000  0.40641000  1.0
  C  C40  1  0.83479000  0.07473000  0.44316000  1.0
  C  C41  1  0.11194000  0.86723000  0.47009000  1.0
  C  C42  1  0.05456000  0.13285000  0.38413000  1.0
  C  C43  1  0.88899000  0.18226000  0.39328000  1.0
  C  C44  1  0.82579000  0.30153000  0.42145000  1.0
  C  C45  1  0.79711000  0.34891000  0.38127000  1.0
  C  C46  1  0.75939000  0.42893000  0.37768000  1.0
  C  C47  1  0.74928000  0.46276000  0.41332000  1.0
  C  C48  1  0.77642000  0.41417000  0.45369000  1.0
  C  C49  1  0.81418000  0.33464000  0.45772000  1.0
  C  C50  1  0.71333000  0.54784000  0.40888000  1.0
  C  C51  1  0.94830000  0.92120000  0.48354000  1.0
  C  C52  1  0.90777000  0.83063000  0.47107000  1.0
  C  C53  1  0.87354000  0.82655000  0.51187000  1.0
  C  C54  1  0.83445000  0.78274000  0.52274000  1.0
  C  C55  1  0.82739000  0.74385000  0.49353000  1.0
  C  C56  1  0.86270000  0.74817000  0.45293000  1.0
  C  C57  1  0.90327000  0.78993000  0.44185000  1.0
  C  C58  1  0.78250000  0.70012000  0.50441000  1.0
  C  C59  1  0.16645000  0.96971000  0.41259000  1.0
  C  C60  1  0.28349000  0.93280000  0.45099000  1.0
  C  C61  1  0.31524000  0.93424000  0.48800000  1.0
  C  C62  1  0.39326000  0.88435000  0.49796000  1.0
  C  C63  1  0.44146000  0.83372000  0.47074000  1.0
  C  C64  1  0.41026000  0.83579000  0.43277000  1.0
  C  C65  1  0.33153000  0.88477000  0.42272000  1.0
  C  C66  1  0.52348000  0.77634000  0.48369000  1.0
  C  C67  1  0.14737000  0.89745000  0.69120000  1.0
  C  C68  1  0.09891000  0.97395000  0.67080000  1.0
  C  C69  1  0.01723000  0.00455000  0.67443000  1.0
  C  C70  1  0.98445000  0.96087000  0.70033000  1.0
  C  C71  1  0.03408000  0.88381000  0.72005000  1.0
  C  C72  1  0.11512000  0.85082000  0.71413000  1.0
  C  C73  1  0.13197000  0.02403000  0.64480000  1.0
  C  C74  1  0.89754000  0.99427000  0.70737000  1.0
  C  C75  1  0.16738000  0.76643000  0.73198000  1.0
  C  C76  1  0.23432000  0.86411000  0.69031000  1.0
  C  C77  1  0.34580000  0.79441000  0.64919000  1.0
  C  C78  1  0.39436000  0.78722000  0.68091000  1.0
  C  C79  1  0.47469000  0.74721000  0.67602000  1.0
  C  C80  1  0.50818000  0.71420000  0.63991000  1.0
  C  C81  1  0.45866000  0.72367000  0.60773000  1.0
  C  C82  1  0.37823000  0.76292000  0.61228000  1.0
  C  C83  1  0.59407000  0.67129000  0.63645000  1.0
  C  C84  1  0.00025000  0.83533000  0.74692000  1.0
  C  C85  1  0.94761000  0.75787000  0.72812000  1.0
  C  C86  1  0.94811000  0.71603000  0.69807000  1.0
  C  C87  1  0.89394000  0.68974000  0.70140000  1.0
  C  C88  1  0.83817000  0.70383000  0.73452000  1.0
  C  C89  1  0.84007000  0.74345000  0.76487000  1.0
  C  C90  1  0.89426000  0.77017000  0.76222000  1.0
  C  C91  1  0.78022000  0.67568000  0.73741000  1.0
  C  C92  1  0.96630000  0.08241000  0.64808000  1.0
  C  C93  1  0.91206000  0.21754000  0.64649000  1.0
  C  C94  1  0.91538000  0.27750000  0.66001000  1.0
  C  C95  1  0.87196000  0.35332000  0.63848000  1.0
  C  C96  1  0.82386000  0.37114000  0.60366000  1.0
  C  C97  1  0.81990000  0.31092000  0.59111000  1.0
  C  C98  1  0.86373000  0.23471000  0.61200000  1.0
  C  C99  1  0.77700000  0.45172000  0.57970000  1.0
  C  C100  1  0.93713000  0.08631000  0.91580000  1.0
  C  C101  1  0.01666000  0.05907000  0.90516000  1.0
  C  C102  1  0.07067000  0.98150000  0.92054000  1.0
  C  C103  1  0.04750000  0.93354000  0.95081000  1.0
  C  C104  1  0.96877000  0.96303000  0.96318000  1.0
  C  C105  1  0.91234000  0.03793000  0.94419000  1.0
  C  C106  1  0.04240000  0.11432000  0.87795000  1.0
  C  C107  1  0.10508000  0.85197000  0.97081000  1.0
  C  C108  1  0.82776000  0.06416000  0.95592000  1.0
  C  C109  1  0.88069000  0.16857000  0.89718000  1.0
  C  C110  1  0.84327000  0.29581000  0.90946000  1.0
  C  C111  1  0.78567000  0.33153000  0.87754000  1.0
  C  C112  1  0.74566000  0.41180000  0.86670000  1.0
  C  C113  1  0.76124000  0.45759000  0.88723000  1.0
  C  C114  1  0.81878000  0.42065000  0.91948000  1.0
  C  C115  1  0.85978000  0.34076000  0.93046000  1.0
  C  C116  1  0.71940000  0.54299000  0.87503000  1.0
  C  C117  1  0.15296000  0.94992000  0.90424000  1.0
  C  C118  1  0.27960000  0.91206000  0.93184000  1.0
  C  C119  1  0.32124000  0.91616000  0.96347000  1.0
  C  C120  1  0.40061000  0.86732000  0.96772000  1.0
  C  C121  1  0.44099000  0.81495000  0.94010000  1.0
  C  C122  1  0.39966000  0.81491000  0.90694000  1.0
  C  C123  1  0.31928000  0.86271000  0.90269000  1.0
  C  C124  1  0.52450000  0.75828000  0.94790000  1.0
  C  C125  1  0.94328000  0.91453000  0.99698000  1.0
  C  C126  1  0.87507000  0.84121000  0.99657000  1.0
  C  C127  1  0.85054000  0.84435000  0.03941000  1.0
  C  C128  1  0.80064000  0.81419000  0.05697000  1.0
  C  C129  1  0.77484000  0.78047000  0.03278000  1.0
  C  C130  1  0.80033000  0.77763000  0.99002000  1.0
  C  C131  1  0.85005000  0.80705000  0.97210000  1.0
  C  C132  1  0.72047000  0.74957000  0.05127000  1.0
  C  C133  1  0.93882000  0.00523000  0.82293000  1.0
  C  C134  1  0.98567000  0.92747000  0.84150000  1.0
  C  C135  1  0.06710000  0.89411000  0.83582000  1.0
  C  C136  1  0.10057000  0.93510000  0.80796000  1.0
  C  C137  1  0.05152000  0.01124000  0.78653000  1.0
  C  C138  1  0.97099000  0.04743000  0.79478000  1.0
  C  C139  1  0.95002000  0.87944000  0.86733000  1.0
  C  C140  1  0.18743000  0.89923000  0.80012000  1.0
  C  C141  1  0.91794000  0.13012000  0.77430000  1.0
  C  C142  1  0.85436000  0.04447000  0.83487000  1.0
  C  C143  1  0.72827000  0.09038000  0.80552000  1.0
  C  C144  1  0.68217000  0.12206000  0.76822000  1.0
  C  C145  1  0.60165000  0.16371000  0.77131000  1.0
  C  C146  1  0.56563000  0.17293000  0.81168000  1.0
  C  C147  1  0.61233000  0.13697000  0.84854000  1.0
  C  C148  1  0.69298000  0.09727000  0.84596000  1.0
  C  C149  1  0.48100000  0.22233000  0.81637000  1.0
  C  C150  1  0.08624000  0.05561000  0.75636000  1.0
  C  C151  1  0.12826000  0.14852000  0.76247000  1.0
  C  C152  1  0.17854000  0.13319000  0.72704000  1.0
  C  C153  1  0.22118000  0.17316000  0.71484000  1.0
  C  C154  1  0.21474000  0.22809000  0.73734000  1.0
  C  C155  1  0.16251000  0.24415000  0.77204000  1.0
  C  C156  1  0.11914000  0.20559000  0.78440000  1.0
  C  C157  1  0.26350000  0.26712000  0.72556000  1.0
  C  C158  1  0.11590000  0.81533000  0.86191000  1.0
  C  C159  1  0.16649000  0.68188000  0.85855000  1.0
  C  C160  1  0.20361000  0.65738000  0.89851000  1.0
  C  C161  1  0.25024000  0.57864000  0.91384000  1.0
  C  C162  1  0.26090000  0.52395000  0.88991000  1.0
  C  C163  1  0.22277000  0.54981000  0.85010000  1.0
  C  C164  1  0.17538000  0.62763000  0.83466000  1.0
  C  C165  1  0.31394000  0.44063000  0.90528000  1.0
  C  C166  1  0.05331000  0.89994000  0.58839000  1.0
  C  C167  1  0.07957000  0.95055000  0.56388000  1.0
  C  C168  1  0.02445000  0.02533000  0.54421000  1.0
  C  C169  1  0.94404000  0.05170000  0.55111000  1.0
  C  C170  1  0.91866000  0.00140000  0.57700000  1.0
  C  C171  1  0.97293000  0.92424000  0.59359000  1.0
  C  C172  1  0.16522000  0.92526000  0.55685000  1.0
  C  C173  1  0.88807000  0.13276000  0.52991000  1.0
  C  C174  1  0.94544000  0.86714000  0.61587000  1.0
  C  C175  1  0.11101000  0.81774000  0.60673000  1.0
  C  C176  1  0.17422000  0.69846000  0.57855000  1.0
  C  C177  1  0.20290000  0.65108000  0.61874000  1.0
  C  C178  1  0.24062000  0.57106000  0.62232000  1.0
  C  C179  1  0.25072000  0.53723000  0.58668000  1.0
  C  C180  1  0.22358000  0.58582000  0.54632000  1.0
  C  C181  1  0.18582000  0.66535000  0.54228000  1.0
  C  C182  1  0.28668000  0.45215000  0.59112000  1.0
  C  C183  1  0.05170000  0.07880000  0.51647000  1.0
  C  C184  1  0.09224000  0.16937000  0.52893000  1.0
  C  C185  1  0.12647000  0.17344000  0.48813000  1.0
  C  C186  1  0.16556000  0.21725000  0.47727000  1.0
  C  C187  1  0.17262000  0.25614000  0.50647000  1.0
  C  C188  1  0.13730000  0.25182000  0.54707000  1.0
  C  C189  1  0.09673000  0.21006000  0.55816000  1.0
  C  C190  1  0.21750000  0.29987000  0.49559000  1.0
  C  C191  1  0.83355000  0.03028000  0.58741000  1.0
  C  C192  1  0.71652000  0.06719000  0.54902000  1.0
  C  C193  1  0.68477000  0.06575000  0.51201000  1.0
  C  C194  1  0.60675000  0.11565000  0.50205000  1.0
  C  C195  1  0.55854000  0.16627000  0.52927000  1.0
  C  C196  1  0.58974000  0.16421000  0.56724000  1.0
  C  C197  1  0.66847000  0.11522000  0.57728000  1.0
  C  C198  1  0.47652000  0.22365000  0.51631000  1.0
  C  C199  1  0.85264000  0.10255000  0.30880000  1.0
  C  C200  1  0.90109000  0.02605000  0.32920000  1.0
  C  C201  1  0.98278000  0.99545000  0.32558000  1.0
  C  C202  1  0.01556000  0.03913000  0.29967000  1.0
  C  C203  1  0.96592000  0.11618000  0.27995000  1.0
  C  C204  1  0.88488000  0.14917000  0.28588000  1.0
  C  C205  1  0.86804000  0.97596000  0.35520000  1.0
  C  C206  1  0.10246000  0.00572000  0.29263000  1.0
  C  C207  1  0.83263000  0.23357000  0.26802000  1.0
  C  C208  1  0.76569000  0.13589000  0.30970000  1.0
  C  C209  1  0.65421000  0.20559000  0.35081000  1.0
  C  C210  1  0.60564000  0.21277000  0.31909000  1.0
  C  C211  1  0.52531000  0.25278000  0.32399000  1.0
  C  C212  1  0.49182000  0.28579000  0.36010000  1.0
  C  C213  1  0.54135000  0.27632000  0.39227000  1.0
  C  C214  1  0.62177000  0.23708000  0.38772000  1.0
  C  C215  1  0.40594000  0.32870000  0.36355000  1.0
  C  C216  1  0.99975000  0.16466000  0.25309000  1.0
  C  C217  1  0.05240000  0.24212000  0.27189000  1.0
  C  C218  1  0.05190000  0.28396000  0.30194000  1.0
  C  C219  1  0.10606000  0.31025000  0.29861000  1.0
  C  C220  1  0.16183000  0.29617000  0.26548000  1.0
  C  C221  1  0.15993000  0.25654000  0.23514000  1.0
  C  C222  1  0.10574000  0.22982000  0.23778000  1.0
  C  C223  1  0.21979000  0.32431000  0.26259000  1.0
  C  C224  1  0.03371000  0.91758000  0.35192000  1.0
  C  C225  1  0.08794000  0.78245000  0.35351000  1.0
  C  C226  1  0.08463000  0.72249000  0.33999000  1.0
  C  C227  1  0.12805000  0.64668000  0.36153000  1.0
  C  C228  1  0.17615000  0.62886000  0.39634000  1.0
  C  C229  1  0.18010000  0.68907000  0.40889000  1.0
  C  C230  1  0.13627000  0.76529000  0.38800000  1.0
  C  C231  1  0.22300000  0.54827000  0.42031000  1.0
  C  C232  1  0.06288000  0.91369000  0.08420000  1.0
  C  C233  1  0.98334000  0.94093000  0.09485000  1.0
  C  C234  1  0.92934000  0.01849000  0.07946000  1.0
  C  C235  1  0.95250000  0.06645000  0.04920000  1.0
  C  C236  1  0.03123000  0.03696000  0.03683000  1.0
  C  C237  1  0.08767000  0.96206000  0.05581000  1.0
  C  C238  1  0.95760000  0.88567000  0.12205000  1.0
  C  C239  1  0.89492000  0.14802000  0.02919000  1.0
  C  C240  1  0.17225000  0.93583000  0.04408000  1.0
  C  C241  1  0.11932000  0.83142000  0.10282000  1.0
  C  C242  1  0.15674000  0.70419000  0.09054000  1.0
  C  C243  1  0.21433000  0.66847000  0.12246000  1.0
  C  C244  1  0.25435000  0.58819000  0.13331000  1.0
  C  C245  1  0.23877000  0.54241000  0.11278000  1.0
  C  C246  1  0.18123000  0.57934000  0.08052000  1.0
  C  C247  1  0.14023000  0.65923000  0.06954000  1.0
  C  C248  1  0.28061000  0.45701000  0.12497000  1.0
  C  C249  1  0.84704000  0.05008000  0.09577000  1.0
  C  C250  1  0.72040000  0.08793000  0.06816000  1.0
  C  C251  1  0.67876000  0.08383000  0.03653000  1.0
  C  C252  1  0.59940000  0.13268000  0.03228000  1.0
  C  C253  1  0.55902000  0.18504000  0.05990000  1.0
  C  C254  1  0.60034000  0.18508000  0.09306000  1.0
  C  C255  1  0.68073000  0.13728000  0.09731000  1.0
  C  C256  1  0.47551000  0.24171000  0.05210000  1.0
  C  C257  1  0.05672000  0.08546000  0.00303000  1.0
  C  C258  1  0.12493000  0.15878000  0.00343000  1.0
  C  C259  1  0.14946000  0.15564000  0.96060000  1.0
  C  C260  1  0.19936000  0.18581000  0.94303000  1.0
  C  C261  1  0.22516000  0.21953000  0.96722000  1.0
  C  C262  1  0.19968000  0.22236000  0.00998000  1.0
  C  C263  1  0.14996000  0.19295000  0.02790000  1.0
  C  C264  1  0.27953000  0.25043000  0.94873000  1.0
  N  N1  1  0.38445000  0.74980000  0.09868000  1.0
  N  N2  1  0.71554000  0.49948000  0.25831000  1.0
  N  N3  1  0.53660000  0.82549000  0.33102000  1.0
  N  N4  1  0.82678000  0.45535000  0.73011000  1.0
  N  N5  1  0.48970000  0.78728000  0.78822000  1.0
  N  N6  1  0.79041000  0.69032000  0.90232000  1.0
  N  N7  1  0.61555000  0.25020000  0.90132000  1.0
  N  N8  1  0.28447000  0.50051000  0.74170000  1.0
  N  N9  1  0.46341000  0.17450000  0.66898000  1.0
  N  N10  1  0.17322000  0.54464000  0.26990000  1.0
  N  N11  1  0.51031000  0.21271000  0.21178000  1.0
  N  N12  1  0.20960000  0.30967000  0.09768000  1.0
  O  O1  1  0.19262000  0.94695000  0.20030000  1.0
  O  O2  1  0.87839000  0.24247000  0.16041000  1.0
  O  O3  1  0.91328000  0.88935000  0.22100000  1.0
  O  O4  1  0.56163000  0.73424000  0.21668000  1.0
  O  O5  1  0.54942000  0.77770000  0.14582000  1.0
  O  O6  1  0.72454000  0.70329000  0.24603000  1.0
  O  O7  1  0.70686000  0.73007000  0.31209000  1.0
  O  O8  1  0.65707000  0.58288000  0.05669000  1.0
  O  O9  1  0.66953000  0.60591000  0.12042000  1.0
  O  O10  1  0.86597000  0.22260000  0.42915000  1.0
  O  O11  1  0.94602000  0.87273000  0.45628000  1.0
  O  O12  1  0.20415000  0.97950000  0.44586000  1.0
  O  O13  1  0.69079000  0.59209000  0.37161000  1.0
  O  O14  1  0.70774000  0.57618000  0.44200000  1.0
  O  O15  1  0.75688000  0.68737000  0.47324000  1.0
  O  O16  1  0.77037000  0.67690000  0.54392000  1.0
  O  O17  1  0.56838000  0.73439000  0.45639000  1.0
  O  O18  1  0.54600000  0.76745000  0.52107000  1.0
  O  O19  1  0.26592000  0.83168000  0.65194000  1.0
  O  O20  1  0.00079000  0.78436000  0.72053000  1.0
  O  O21  1  0.95716000  0.14375000  0.66873000  1.0
  O  O22  1  0.63557000  0.66008000  0.66878000  1.0
  O  O23  1  0.62700000  0.64626000  0.60248000  1.0
  O  O24  1  0.73114000  0.68670000  0.76874000  1.0
  O  O25  1  0.78047000  0.64013000  0.70865000  1.0
  O  O26  1  0.72755000  0.46478000  0.55225000  1.0
  O  O27  1  0.78927000  0.50551000  0.58732000  1.0
  O  O28  1  0.88655000  0.21757000  0.92263000  1.0
  O  O29  1  0.20037000  0.95754000  0.93304000  1.0
  O  O30  1  0.92218000  0.87031000  0.97532000  1.0
  O  O31  1  0.68036000  0.57608000  0.83976000  1.0
  O  O32  1  0.72370000  0.58279000  0.90000000  1.0
  O  O33  1  0.56709000  0.72302000  0.91855000  1.0
  O  O34  1  0.55240000  0.74417000  0.98553000  1.0
  O  O35  1  0.69697000  0.75408000  0.09013000  1.0
  O  O36  1  0.69697000  0.72103000  0.02751000  1.0
  O  O37  1  0.44744000  0.69048000  0.11443000  1.0
  O  O38  1  0.31930000  0.75806000  0.11223000  1.0
  O  O39  1  0.39049000  0.80142000  0.06866000  1.0
  O  O40  1  0.72026000  0.55962000  0.23574000  1.0
  O  O41  1  0.65984000  0.51219000  0.28543000  1.0
  O  O42  1  0.76427000  0.43357000  0.25396000  1.0
  O  O43  1  0.51091000  0.84933000  0.29356000  1.0
  O  O44  1  0.55671000  0.86216000  0.34990000  1.0
  O  O45  1  0.54580000  0.75782000  0.35188000  1.0
  O  O46  1  0.77425000  0.49835000  0.69995000  1.0
  O  O47  1  0.80259000  0.45506000  0.76877000  1.0
  O  O48  1  0.89625000  0.41799000  0.72065000  1.0
  O  O49  1  0.49887000  0.82655000  0.81127000  1.0
  O  O50  1  0.55132000  0.72421000  0.78140000  1.0
  O  O51  1  0.42558000  0.80693000  0.77316000  1.0
  O  O52  1  0.83179000  0.63969000  0.93327000  1.0
  O  O53  1  0.71768000  0.73668000  0.91026000  1.0
  O  O54  1  0.81510000  0.69652000  0.86465000  1.0
  O  O55  1  0.80739000  0.05304000  0.79971000  1.0
  O  O56  1  0.12162000  0.75753000  0.83959000  1.0
  O  O57  1  0.08673000  0.11064000  0.77900000  1.0
  O  O58  1  0.43838000  0.26575000  0.78332000  1.0
  O  O59  1  0.45059000  0.22229000  0.85418000  1.0
  O  O60  1  0.27547000  0.29670000  0.75397000  1.0
  O  O61  1  0.29314000  0.26993000  0.68791000  1.0
  O  O62  1  0.34294000  0.41711000  0.94331000  1.0
  O  O63  1  0.33047000  0.39409000  0.87958000  1.0
  O  O64  1  0.13404000  0.77740000  0.57086000  1.0
  O  O65  1  0.05398000  0.12727000  0.54372000  1.0
  O  O66  1  0.79586000  0.02049000  0.55415000  1.0
  O  O67  1  0.30922000  0.40791000  0.62839000  1.0
  O  O68  1  0.29226000  0.42382000  0.55800000  1.0
  O  O69  1  0.24312000  0.31262000  0.52676000  1.0
  O  O70  1  0.22964000  0.32310000  0.45609000  1.0
  O  O71  1  0.43163000  0.26560000  0.54361000  1.0
  O  O72  1  0.45400000  0.23254000  0.47893000  1.0
  O  O73  1  0.73409000  0.16832000  0.34807000  1.0
  O  O74  1  0.99921000  0.21563000  0.27947000  1.0
  O  O75  1  0.04285000  0.85624000  0.33127000  1.0
  O  O76  1  0.36444000  0.33991000  0.33122000  1.0
  O  O77  1  0.37300000  0.35374000  0.39753000  1.0
  O  O78  1  0.26887000  0.31330000  0.23127000  1.0
  O  O79  1  0.21954000  0.35986000  0.29136000  1.0
  O  O80  1  0.27246000  0.53521000  0.44775000  1.0
  O  O81  1  0.21073000  0.49449000  0.41269000  1.0
  O  O82  1  0.11346000  0.78242000  0.07738000  1.0
  O  O83  1  0.79964000  0.04246000  0.06697000  1.0
  O  O84  1  0.07782000  0.12969000  0.02468000  1.0
  O  O85  1  0.31965000  0.42391000  0.16025000  1.0
  O  O86  1  0.27630000  0.41720000  0.10001000  1.0
  O  O87  1  0.43292000  0.27697000  0.08145000  1.0
  O  O88  1  0.44760000  0.25583000  0.01448000  1.0
  O  O89  1  0.30304000  0.24592000  0.90987000  1.0
  O  O90  1  0.30303000  0.27897000  0.97249000  1.0
  O  O91  1  0.55257000  0.30952000  0.88557000  1.0
  O  O92  1  0.68070000  0.24194000  0.88778000  1.0
  O  O93  1  0.60951000  0.19857000  0.93134000  1.0
  O  O94  1  0.27974000  0.44038000  0.76427000  1.0
  O  O95  1  0.34017000  0.48781000  0.71457000  1.0
  O  O96  1  0.23573000  0.56642000  0.74604000  1.0
  O  O97  1  0.48910000  0.15067000  0.70645000  1.0
  O  O98  1  0.44330000  0.13783000  0.65010000  1.0
  O  O99  1  0.45420000  0.24218000  0.64812000  1.0
  O  O100  1  0.22575000  0.50165000  0.30006000  1.0
  O  O101  1  0.19741000  0.54494000  0.23123000  1.0
  O  O102  1  0.10376000  0.58201000  0.27936000  1.0
  O  O103  1  0.50113000  0.17344000  0.18873000  1.0
  O  O104  1  0.44868000  0.27578000  0.21861000  1.0
  O  O105  1  0.57442000  0.19306000  0.22684000  1.0
  O  O106  1  0.16822000  0.36031000  0.06674000  1.0
  O  O107  1  0.28233000  0.26332000  0.08974000  1.0
  O  O108  1  0.18490000  0.30347000  0.13535000  1.0
