# generated using pymatgen
data_V4H29C47O23F
_symmetry_space_group_name_H-M   'P 1'
_cell_length_a   6.95127000
_cell_length_b   13.66732000
_cell_length_c   20.44258000
_cell_angle_alpha   77.73425000
_cell_angle_beta   89.27926000
_cell_angle_gamma   89.17858000
_symmetry_Int_Tables_number   1
_chemical_formula_structural   V4H29C47O23F
_chemical_formula_sum   'V4 H29 C47 O23 F1'
_cell_volume   1897.53268452
_cell_formula_units_Z   1
loop_
 _symmetry_equiv_pos_site_id
 _symmetry_equiv_pos_as_xyz
  1  'x, y, z'
loop_
 _atom_site_type_symbol
 _atom_site_label
 _atom_site_symmetry_multiplicity
 _atom_site_fract_x
 _atom_site_fract_y
 _atom_site_fract_z
 _atom_site_occupancy
  V  V0  1  0.93532000  0.51180000  0.49778000  1
  V  V1  1  0.43599000  0.48820000  0.50222000  1
  V  V2  1  0.35183000  0.98820000  0.00222000  1
  V  V3  1  0.85119000  0.01193000  0.99782000  1
  H  H4  1  0.19112000  0.16251000  0.47955000  1
  H  H5  1  0.19017000  0.98691000  0.30440000  1
  H  H6  1  0.19890000  0.03421000  0.41213000  1
  H  H7  1  0.12375000  0.39311000  0.30442000  1
  H  H8  1  0.10188000  0.33359000  0.01771000  1
  H  H9  1  0.11423000  0.43126000  0.20069000  1
  H  H10  1  0.09368000  0.46769000  0.08072000  1
  H  H11  1  0.16914000  0.02904000  0.18406000  1
  H  H12  1  0.27662000  0.33299000  0.71496000  1
  H  H13  1  0.85389000  0.21824000  0.81040000  1
  H  H14  1  0.28444000  0.18479000  0.79377000  1
  H  H15  1  0.93110000  0.82259000  0.19649000  1
  H  H16  1  0.49701000  0.78511000  0.19842000  1
  H  H17  1  0.49926000  0.70392000  0.30034000  1
  H  H18  1  0.46926000  0.81347000  0.52655000  1
  H  H19  1  0.40882000  0.98842000  0.69899000  1
  H  H20  1  0.39661000  0.93607000  0.59465000  1
  H  H21  1  0.74426000  0.67569000  0.97728000  1
  H  H22  1  0.70970000  0.57478000  0.79627000  1
  H  H23  1  0.77755000  0.54298000  0.91394000  1
  H  H24  1  0.03121000  0.71118000  0.72151000  1
  H  H25  1  0.05097000  0.69973000  0.63428000  1
  H  H26  1  0.11945000  0.59755000  0.70072000  1
  H  H27  1  0.60201000  0.09725000  0.75165000  1
  H  H28  1  0.77474000  0.02693000  0.81079000  1
  H  H29  1  0.60257000  0.10987000  0.83714000  1
  H  H30  1  0.62970000  0.28715000  0.73948000  1
  H  H31  1  0.56607000  0.29906000  0.65449000  1
  H  H32  1  0.70607000  0.39632000  0.67701000  1
  C  C33  1  0.65193000  0.61607000  0.38647000  1
  C  C34  1  0.65185000  0.63773000  0.56463000  1
  C  C35  1  0.15929000  0.38535000  0.61395000  1
  C  C36  1  0.15830000  0.36254000  0.43487000  1
  C  C37  1  0.18231000  0.11213000  0.38716000  1
  C  C38  1  0.15492000  0.28561000  0.39487000  1
  C  C39  1  0.11327000  0.31450000  0.07177000  1
  C  C40  1  0.10800000  0.39053000  0.10732000  1
  C  C41  1  0.11968000  0.36813000  0.17692000  1
  C  C42  1  0.13750000  0.26783000  0.21312000  1
  C  C43  1  0.14517000  0.19018000  0.17614000  1
  C  C44  1  0.14778000  0.24201000  0.28460000  1
  C  C45  1  0.16817000  0.13957000  0.31717000  1
  C  C46  1  0.17524000  0.06511000  0.27981000  1
  C  C47  1  0.16338000  0.08976000  0.21052000  1
  C  C48  1  0.13942000  0.31412000  0.32518000  1
  C  C49  1  0.17730000  0.18481000  0.42568000  1
  C  C50  1  0.13244000  0.21462000  0.10532000  1
  C  C51  1  0.99653000  0.27711000  0.71269000  1
  C  C52  1  0.15256000  0.32780000  0.68433000  1
  C  C53  1  0.99171000  0.22548000  0.78501000  1
  C  C54  1  0.14469000  0.17987000  0.81835000  1
  C  C55  1  0.79448000  0.79150000  0.21671000  1
  C  C56  1  0.63499000  0.81566000  0.17995000  1
  C  C57  1  0.80018000  0.72267000  0.28396000  1
  C  C58  1  0.64224000  0.68469000  0.31969000  1
  C  C59  1  0.47689000  0.86879000  0.61667000  1
  C  C60  1  0.63172000  0.71524000  0.60355000  1
  C  C61  1  0.71427000  0.69281000  0.92412000  1
  C  C62  1  0.73571000  0.61781000  0.88833000  1
  C  C63  1  0.70267000  0.63812000  0.81982000  1
  C  C64  1  0.65129000  0.73555000  0.78465000  1
  C  C65  1  0.61091000  0.81042000  0.82253000  1
  C  C66  1  0.62793000  0.75919000  0.71354000  1
  C  C67  1  0.52901000  0.84909000  0.68416000  1
  C  C68  1  0.48215000  0.91930000  0.72201000  1
  C  C69  1  0.53310000  0.90420000  0.78908000  1
  C  C70  1  0.69758000  0.69761000  0.66981000  1
  C  C71  1  0.52088000  0.80017000  0.57753000  1
  C  C72  1  0.64945000  0.78826000  0.89261000  1
  C  C73  1  0.63461000  0.86346000  0.93410000  1
  C  C74  1  0.63492000  0.88422000  0.11344000  1
  C  C75  1  0.12899000  0.13715000  0.06542000  1
  C  C76  1  0.12869000  0.11612000  0.88660000  1
  C  C77  1  0.01440000  0.66007000  0.68627000  1
  C  C78  1  0.62411000  0.05603000  0.80409000  1
  C  C79  1  0.68173000  0.31412000  0.68733000  1
  O  O80  1  0.49314000  0.59939000  0.55076000  1
  O  O81  1  0.81978000  0.59460000  0.41322000  1
  O  O82  1  0.99550000  0.40061000  0.44924000  1
  O  O83  1  0.82251000  0.61129000  0.54803000  1
  O  O84  1  0.99825000  0.41742000  0.58501000  1
  O  O85  1  0.49039000  0.58258000  0.41499000  1
  O  O86  1  0.66258000  0.43637000  0.51198000  1
  O  O87  1  0.32829000  0.40540000  0.58678000  1
  O  O88  1  0.32556000  0.38871000  0.45197000  1
  O  O89  1  0.15886000  0.56363000  0.48802000  1
  O  O90  1  0.79677000  0.91731000  0.08498000  1
  O  O91  1  0.46450000  0.88869000  0.95196000  1
  O  O92  1  0.28892000  0.08261000  0.91500000  1
  O  O93  1  0.46737000  0.90537000  0.08677000  1
  O  O94  1  0.29181000  0.09941000  0.05077000  1
  O  O95  1  0.79388000  0.90051000  0.94921000  1
  O  O96  1  0.62464000  0.06357000  0.98801000  1
  O  O97  1  0.96176000  0.11139000  0.04806000  1
  O  O98  1  0.95888000  0.09471000  0.91325000  1
  O  O99  1  0.12825000  0.93643000  0.01199000  1
  O  O100  1  0.82766000  0.61994000  0.69026000  1
  O  O101  1  0.48891000  0.97910000  0.82270000  1
  O  O102  1  0.84648000  0.26189000  0.67225000  1
  F  F103  1  0.97867000  0.69918000  0.30965000  1
