# generated using pymatgen
data_H5C5N4
_symmetry_space_group_name_H-M   'P 1'
_cell_length_a   9.87273333
_cell_length_b   22.66532500
_cell_length_c   22.66530000
_cell_angle_alpha   119.99989054
_cell_angle_beta   90.00000000
_cell_angle_gamma   90.00000000
_symmetry_Int_Tables_number   1
_chemical_formula_structural   H5C5N4
_chemical_formula_sum   'H30 C30 N24'
_cell_volume   4392.29944059
_cell_formula_units_Z   6
loop_
 _symmetry_equiv_pos_site_id
 _symmetry_equiv_pos_as_xyz
  1  'x, y, z'
loop_
 _atom_site_type_symbol
 _atom_site_label
 _atom_site_symmetry_multiplicity
 _atom_site_fract_x
 _atom_site_fract_y
 _atom_site_fract_z
 _atom_site_occupancy
  C  2  1  0.94984500  0.90924000  0.46821300  1
  C  3  1  0.94801200  0.95750050  0.53977050  1
  C  4  1  0.96362300  0.93505250  0.42243150  1
  C  11  1  0.95089000  0.83774500  0.44558500  1
  C  73  1  0.96624100  0.71694000  0.35525300  1
  C  75  1  0.96648400  0.60610350  0.25725050  1
  C  77  1  0.96630100  0.61893700  0.36809000  1
  C  85  1  0.95154900  0.57561900  0.13642800  1
  C  188  1  0.95051600  0.52675350  0.06493550  1
  C  189  1  0.94938600  0.55005450  0.01667450  1
  C  190  1  0.99306000  0.50616850  0.94791650  1
  C  191  1  0.00605600  0.43454300  0.92211200  1
  C  192  1  0.00729600  0.41123650  0.97037550  1
  C  193  1  0.96364400  0.45514350  0.03913050  1
  C  198  1  0.95015200  0.50596050  0.44742150  1
  C  199  1  0.94895500  0.43440100  0.42413200  1
  C  200  1  0.99264000  0.40953600  0.46801400  1
  C  201  1  0.00569200  0.45535700  0.53963900  1
  C  202  1  0.00686500  0.52691550  0.56292750  1
  C  203  1  0.96318200  0.55179050  0.51904750  1
  C  206  1  0.95128500  0.52859100  0.39856200  1
  C  208  1  0.00452600  0.43274400  0.58851300  1
  C  325  1  0.98939400  0.24440900  0.63183700  1
  C  327  1  0.98939500  0.35525100  0.72983600  1
  C  329  1  0.98944400  0.34240600  0.61899300  1
  C  337  1  0.00460700  0.38567200  0.85062100  1
  C  344  1  0.99169300  0.02626500  0.56472700  1
  C  345  1  0.00563100  0.05207850  0.51895950  1
  C  346  1  0.00737800  0.00380900  0.44739700  1
  C  353  1  0.00458800  0.12356400  0.54155100  1
  H  6  1  0.84169100  0.89841000  0.56877600  1
  H  7  1  0.87115500  0.97468200  0.63106100  1
  H  9  1  0.86443000  0.85785050  0.34231250  1
  H  10  1  0.91242600  0.91734750  0.32734650  1
  H  12  1  0.95475500  0.82303750  0.48137950  1
  H  81  1  0.04587300  0.58338650  0.93053850  1
  H  83  1  0.84359500  0.63836000  0.07565900  1
  H  84  1  0.87359600  0.62428850  0.99939450  1
  H  86  1  0.95568600  0.62611400  0.15112100  1
  H  88  1  0.08280300  0.61841300  0.63713400  1
  H  90  1  0.86345900  0.63169550  0.52174050  1
  H  91  1  0.91021200  0.64624500  0.59632600  1
  H  195  1  0.09303500  0.50873850  0.87078650  1
  H  197  1  0.86457800  0.45224550  0.11669450  1
  H  204  1  0.84318900  0.40511400  0.33583800  1
  H  205  1  0.11270800  0.55620650  0.65120750  1
  H  207  1  0.95549000  0.49278900  0.34806400  1
  H  209  1  0.00034900  0.46855250  0.63901050  1
  H  334  1  0.11351400  0.32337000  0.91145500  1
  H  335  1  0.08355300  0.33742900  0.98784900  1
  H  336  1  0.91112900  0.37784200  0.05669500  1
  H  338  1  0.00037300  0.33517700  0.83592600  1
  H  340  1  0.04530500  0.31489600  0.39075700  1
  H  341  1  0.09251600  0.32981050  0.46539950  1
  H  343  1  0.87307900  0.34290200  0.34989600  1
  H  348  1  0.04259200  0.04407100  0.65992800  1
  H  349  1  0.09013700  0.10378750  0.64531850  1
  H  351  1  0.11384900  0.06282400  0.41835300  1
  H  352  1  0.08421500  0.98656350  0.35607550  1
  H  354  1  0.00077800  0.13823150  0.50572150  1
  N  1  1  0.96060300  0.78531550  0.38046650  1
  N  5  1  0.89272400  0.94019700  0.58458800  1
  N  8  1  0.92208400  0.89714150  0.35606250  1
  N  74  1  0.96597700  0.67528000  0.28641300  1
  N  76  1  0.96598300  0.57892350  0.29891050  1
  N  78  1  0.96577000  0.68777450  0.39526750  1
  N  79  1  0.96064900  0.59371950  0.41124650  1
  N  80  1  0.96093700  0.56294200  0.18887300  1
  N  82  1  0.89468900  0.61227400  0.03391300  1
  N  87  1  0.06164400  0.57187850  0.62513450  1
  N  89  1  0.92093400  0.61805950  0.54734650  1
  N  187  1  0.99513800  0.39840250  0.79821150  1
  N  194  1  0.03523100  0.53447800  0.90994500  1
  N  196  1  0.92116800  0.42679400  0.07698000  1
  N  326  1  0.98979900  0.28607350  0.70067350  1
  N  328  1  0.98988000  0.38242400  0.68817100  1
  N  330  1  0.98987500  0.27356600  0.59181600  1
  N  331  1  0.99498100  0.17603700  0.60664400  1
  N  332  1  0.99509600  0.36761650  0.57582950  1
  N  333  1  0.06172900  0.34890600  0.95303700  1
  N  339  1  0.03473700  0.34324150  0.43971050  1
  N  342  1  0.89422500  0.38944300  0.36191100  1
  N  347  1  0.03322600  0.06416200  0.63107700  1
  N  350  1  0.06272800  0.02106800  0.40255800  1
