# generated using pymatgen
data_Gd2CuH8C24(NO2)8
_symmetry_space_group_name_H-M   'P 1'
_cell_length_a   5.96382000
_cell_length_b   12.89527000
_cell_length_c   23.18274000
_cell_angle_alpha   89.82491000
_cell_angle_beta   89.74686000
_cell_angle_gamma   84.38783000
_symmetry_Int_Tables_number   1
_chemical_formula_structural   Gd2CuH8C24(NO2)8
_chemical_formula_sum   'Gd4 Cu2 H16 C48 N16 O32'
_cell_volume   1774.30081796
_cell_formula_units_Z   2
loop_
 _symmetry_equiv_pos_site_id
 _symmetry_equiv_pos_as_xyz
  1  'x, y, z'
loop_
 _atom_site_type_symbol
 _atom_site_label
 _atom_site_symmetry_multiplicity
 _atom_site_fract_x
 _atom_site_fract_y
 _atom_site_fract_z
 _atom_site_occupancy
  Gd  Gd0  1  0.98245000  0.11789000  0.68407000  1
  Gd  Gd1  1  0.51815000  0.38296000  0.18176000  1
  Gd  Gd2  1  0.48187000  0.61702000  0.81822000  1
  Gd  Gd3  1  0.01756000  0.88212000  0.31591000  1
  Cu  Cu4  1  0.00047000  0.99975000  0.99983000  1
  Cu  Cu5  1  0.49996000  0.50002000  0.49998000  1
  H  H6  1  0.69332000  0.34869000  0.39688000  1
  H  H7  1  0.48039000  0.87650000  0.17787000  1
  H  H8  1  0.98693000  0.37771000  0.32161000  1
  H  H9  1  0.51897000  0.12353000  0.82206000  1
  H  H10  1  0.81155000  0.15135000  0.89708000  1
  H  H11  1  0.01316000  0.62231000  0.67838000  1
  H  H12  1  0.53584000  0.73471000  0.34178000  1
  H  H13  1  0.30664000  0.65136000  0.60309000  1
  H  H14  1  0.11682000  0.92833000  0.80289000  1
  H  H15  1  0.18836000  0.84865000  0.10269000  1
  H  H16  1  0.46418000  0.26528000  0.65822000  1
  H  H17  1  0.96278000  0.76545000  0.84264000  1
  H  H18  1  0.38157000  0.57183000  0.30312000  1
  H  H19  1  0.61844000  0.42817000  0.69688000  1
  H  H20  1  0.88318000  0.07167000  0.19710000  1
  H  H21  1  0.03722000  0.23454000  0.15735000  1
  C  C22  1  0.32928000  0.82665000  0.90497000  1
  C  C23  1  0.55038000  0.06797000  0.85722000  1
  C  C24  1  0.44937000  0.93203000  0.14268000  1
  C  C25  1  0.36631000  0.06771000  0.05540000  1
  C  C26  1  0.71450000  0.08420000  0.89816000  1
  C  C27  1  0.03012000  0.58358000  0.40190000  1
  C  C28  1  0.01823000  0.50991000  0.80761000  1
  C  C29  1  0.17099000  0.67496000  0.40443000  1
  C  C30  1  0.40879000  0.17426000  0.26016000  1
  C  C31  1  0.52820000  0.08245000  0.09729000  1
  C  C32  1  0.67076000  0.17337000  0.09499000  1
  C  C33  1  0.21058000  0.58386000  0.60215000  1
  C  C34  1  0.11634000  0.19240000  0.19390000  1
  C  C35  1  0.28564000  0.91572000  0.10164000  1
  C  C36  1  0.89870000  0.27757000  0.79037000  1
  C  C37  1  0.34177000  0.07666000  0.27552000  1
  C  C38  1  0.10131000  0.72244000  0.20962000  1
  C  C39  1  0.86677000  0.56831000  0.44369000  1
  C  C40  1  0.46547000  0.39957000  0.71451000  1
  C  C41  1  0.81795000  0.64027000  0.49451000  1
  C  C42  1  0.84216000  0.57517000  0.22450000  1
  C  C43  1  0.53455000  0.60043000  0.28549000  1
  C  C44  1  0.40368000  0.77339000  0.71010000  1
  C  C45  1  0.96990000  0.41644000  0.59810000  1
  C  C46  1  0.98180000  0.49008000  0.19240000  1
  C  C47  1  0.61642000  0.69178000  0.30567000  1
  C  C48  1  0.32033000  0.13983000  0.00431000  1
  C  C49  1  0.48202000  0.99172000  0.30756000  1
  C  C50  1  0.65823000  0.92334000  0.72448000  1
  C  C51  1  0.82902000  0.32505000  0.59556000  1
  C  C52  1  0.38361000  0.30822000  0.69433000  1
  C  C53  1  0.67966000  0.86018000  0.99560000  1
  C  C54  1  0.95393000  0.43316000  0.35668000  1
  C  C55  1  0.96484000  0.89913000  0.78551000  1
  C  C56  1  0.03516000  0.10087000  0.21449000  1
  C  C57  1  0.63388000  0.93224000  0.94445000  1
  C  C58  1  0.78941000  0.41617000  0.39783000  1
  C  C59  1  0.91063000  0.67225000  0.23959000  1
  C  C60  1  0.88366000  0.80759000  0.80609000  1
  C  C61  1  0.08941000  0.32775000  0.76042000  1
  C  C62  1  0.13322000  0.43171000  0.55630000  1
  C  C63  1  0.04611000  0.56687000  0.64331000  1
  C  C64  1  0.18203000  0.35974000  0.50548000  1
  C  C65  1  0.47177000  0.91756000  0.90261000  1
  C  C66  1  0.51798000  0.00828000  0.69244000  1
  C  C67  1  0.59632000  0.22660000  0.28990000  1
  C  C68  1  0.59121000  0.82574000  0.73983000  1
  C  C69  1  0.15788000  0.42483000  0.77550000  1
  N  N70  1  0.79551000  0.72970000  0.28061000  1
  N  N71  1  0.14740000  0.04450000  0.25586000  1
  N  N72  1  0.35402000  0.45607000  0.75605000  1
  N  N73  1  0.24393000  0.98575000  0.05913000  1
  N  N74  1  0.43268000  0.98420000  0.85797000  1
  N  N75  1  0.70537000  0.76936000  0.78137000  1
  N  N76  1  0.29464000  0.23064000  0.21862000  1
  N  N77  1  0.07085000  0.51721000  0.35734000  1
  N  N78  1  0.25465000  0.51388000  0.55984000  1
  N  N79  1  0.92919000  0.48281000  0.64266000  1
  N  N80  1  0.64600000  0.54393000  0.24395000  1
  N  N81  1  0.56708000  0.01580000  0.14194000  1
  N  N82  1  0.75654000  0.01411000  0.94064000  1
  N  N83  1  0.20452000  0.27030000  0.71939000  1
  N  N84  1  0.85261000  0.95550000  0.74413000  1
  N  N85  1  0.74533000  0.48615000  0.44014000  1
  O  O86  1  0.37643000  0.92543000  0.33395000  1
  O  O87  1  0.56841000  0.78435000  0.00044000  1
  O  O88  1  0.07875000  0.76049000  0.38004000  1
  O  O89  1  0.33126000  0.80430000  0.66295000  1
  O  O90  1  0.18072000  0.68767000  0.16382000  1
  O  O91  1  0.33919000  0.38628000  0.47092000  1
  O  O92  1  0.12465000  0.57164000  0.83694000  1
  O  O93  1  0.15906000  0.80467000  0.23686000  1
  O  O94  1  0.36508000  0.66177000  0.42274000  1
  O  O95  1  0.06772000  0.28535000  0.49983000  1
  O  O96  1  0.30686000  0.01593000  0.69990000  1
  O  O97  1  0.66873000  0.19570000  0.33705000  1
  O  O98  1  0.62358000  0.07457000  0.66605000  1
  O  O99  1  0.13421000  0.84026000  0.92306000  1
  O  O100  1  0.86587000  0.15978000  0.07695000  1
  O  O101  1  0.42108000  0.74113000  0.88072000  1
  O  O102  1  0.69314000  0.98408000  0.30010000  1
  O  O103  1  0.63492000  0.33825000  0.57726000  1
  O  O104  1  0.84094000  0.19534000  0.76313000  1
  O  O105  1  0.66080000  0.61372000  0.52907000  1
  O  O106  1  0.57885000  0.25890000  0.11923000  1
  O  O107  1  0.87536000  0.42837000  0.16306000  1
  O  O108  1  0.34071000  0.69367000  0.73929000  1
  O  O109  1  0.43139000  0.21573000  0.99953000  1
  O  O110  1  0.81928000  0.31233000  0.83617000  1
  O  O111  1  0.19040000  0.47695000  0.20269000  1
  O  O112  1  0.92128000  0.23951000  0.61994000  1
  O  O113  1  0.83015000  0.88870000  0.03124000  1
  O  O114  1  0.16976000  0.11131000  0.96869000  1
  O  O115  1  0.93227000  0.71467000  0.50017000  1
  O  O116  1  0.65930000  0.30632000  0.26070000  1
  O  O117  1  0.80963000  0.52304000  0.79731000  1
