# generated using pymatgen
data_BaP4H27C22NO12
_symmetry_space_group_name_H-M   'P 1'
_cell_length_a   8.17587000
_cell_length_b   14.92539000
_cell_length_c   15.06238000
_cell_angle_alpha   97.43130000
_cell_angle_beta   99.34426000
_cell_angle_gamma   97.82169000
_symmetry_Int_Tables_number   1
_chemical_formula_structural   BaP4H27C22NO12
_chemical_formula_sum   'Ba2 P8 H54 C44 N2 O24'
_cell_volume   1775.07981327
_cell_formula_units_Z   2
loop_
 _symmetry_equiv_pos_site_id
 _symmetry_equiv_pos_as_xyz
  1  'x, y, z'
loop_
 _atom_site_type_symbol
 _atom_site_label
 _atom_site_symmetry_multiplicity
 _atom_site_fract_x
 _atom_site_fract_y
 _atom_site_fract_z
 _atom_site_occupancy
  Ba  Ba0  1  0.15473000  0.54377000  0.45818000  1
  Ba  Ba1  1  0.65543000  0.45622000  0.54175000  1
  P  P2  1  0.00420000  0.70923000  0.58035000  1
  P  P3  1  0.30500000  0.42557000  0.29090000  1
  P  P4  1  0.88925000  0.61686000  0.22391000  1
  P  P5  1  0.80608000  0.29076000  0.41957000  1
  P  P6  1  0.91240000  0.38286000  0.77701000  1
  P  P7  1  0.41089000  0.78308000  0.39162000  1
  P  P8  1  0.50091000  0.57917000  0.72355000  1
  P  P9  1  0.40018000  0.21713000  0.60942000  1
  H  H10  1  0.29342000  0.67265000  0.21803000  1
  H  H11  1  0.12440000  0.29996000  0.35632000  1
  H  H12  1  0.21096000  0.77452000  0.10597000  1
  H  H13  1  0.96851000  0.21837000  0.20074000  1
  H  H14  1  0.97246000  0.14548000  0.28784000  1
  H  H15  1  0.10913000  0.13594000  0.20551000  1
  H  H16  1  0.51021000  0.72729000  0.23308000  1
  H  H17  1  0.36723000  0.70903000  0.07256000  1
  H  H18  1  0.70466000  0.71191000  0.66149000  1
  H  H19  1  0.48756000  0.71956000  0.61796000  1
  H  H20  1  0.73372000  0.86023000  0.76270000  1
  H  H21  1  0.52746000  0.26822000  0.15169000  1
  H  H22  1  0.66297000  0.87207000  0.64553000  1
  H  H23  1  0.51527000  0.86690000  0.72227000  1
  H  H24  1  0.42785000  0.82852000  0.12119000  1
  H  H25  1  0.92874000  0.93763000  0.30250000  1
  H  H26  1  0.80509000  0.20955000  0.66469000  1
  H  H27  1  0.02496000  0.22804000  0.71714000  1
  H  H28  1  0.74306000  0.09336000  0.76400000  1
  H  H29  1  0.89793000  0.06422000  0.69726000  1
  H  H30  1  0.96271000  0.11135000  0.81639000  1
  H  H31  1  0.26099000  0.16191000  0.76060000  1
  H  H32  1  0.62903000  0.37623000  0.13012000  1
  H  H33  1  0.33796000  0.28440000  0.77327000  1
  H  H34  1  0.57095000  0.27138000  0.89408000  1
  H  H35  1  0.00811000  0.78971000  0.33452000  1
  H  H36  1  0.51236000  0.14897000  0.87834000  1
  H  H37  1  0.19963000  0.88213000  0.62513000  1
  H  H38  1  0.32132000  0.03770000  0.63465000  1
  H  H39  1  0.49005000  0.96254000  0.36684000  1
  H  H40  1  0.61438000  0.11726000  0.37417000  1
  H  H41  1  0.67525000  0.69616000  0.47244000  1
  H  H42  1  0.13226000  0.30474000  0.53256000  1
  H  H43  1  0.73913000  0.28045000  0.12900000  1
  H  H44  1  0.68211000  0.58103000  0.04730000  1
  H  H45  1  0.10992000  0.42417000  0.96196000  1
  H  H46  1  0.21791000  0.43550000  0.09949000  1
  H  H47  1  0.78841000  0.77667000  0.28329000  1
  H  H48  1  0.57268000  0.57667000  0.91450000  1
  H  H49  1  0.62686000  0.54578000  0.31600000  1
  H  H50  1  0.18231000  0.45778000  0.69382000  1
  H  H51  1  0.07749000  0.90350000  0.23354000  1
  H  H52  1  0.85710000  0.89077000  0.18360000  1
  H  H53  1  0.62140000  0.37290000  0.29716000  1
  H  H54  1  0.19018000  0.63314000  0.71295000  1
  H  H55  1  0.83171000  0.39503000  0.27372000  1
  H  H56  1  0.23797000  0.15993000  0.39194000  1
  H  H57  1  0.37213000  0.17809000  0.32121000  1
  H  H58  1  0.24904000  0.16965000  0.92188000  1
  H  H59  1  0.29987000  0.28457000  0.93466000  1
  H  H60  1  0.97175000  0.60430000  0.72040000  1
  H  H61  1  0.24411000  0.73558000  0.86029000  1
  H  H62  1  0.14006000  0.62511000  0.87426000  1
  H  H63  1  0.02244000  0.71780000  0.86530000  1
  C  C64  1  0.34364000  0.76421000  0.12356000  1
  C  C65  1  0.10596000  0.07877000  0.55464000  1
  C  C66  1  0.96382000  0.89072000  0.53821000  1
  C  C67  1  0.91886000  0.79097000  0.27093000  1
  C  C68  1  0.12490000  0.92508000  0.58937000  1
  C  C69  1  0.19575000  0.01649000  0.59571000  1
  C  C70  1  0.89372000  0.79626000  0.52689000  1
  C  C71  1  0.73018000  0.76735000  0.47861000  1
  C  C72  1  0.91652000  0.20386000  0.47452000  1
  C  C73  1  0.84732000  0.10930000  0.46318000  1
  C  C74  1  0.94076000  0.04725000  0.50533000  1
  C  C75  1  0.37740000  0.73774000  0.21820000  1
  C  C76  1  0.68738000  0.07462000  0.41114000  1
  C  C77  1  0.61551000  0.98357000  0.40584000  1
  C  C78  1  0.70410000  0.92162000  0.44826000  1
  C  C79  1  0.94741000  0.88669000  0.24597000  1
  C  C80  1  0.86982000  0.95301000  0.49691000  1
  C  C81  1  0.63290000  0.82882000  0.44230000  1
  C  C82  1  0.07803000  0.23338000  0.52568000  1
  C  C83  1  0.23111000  0.46779000  0.76622000  1
  C  C84  1  0.13030000  0.43634000  0.82547000  1
  C  C85  1  0.19325000  0.45007000  0.91940000  1
  C  C86  1  0.59009000  0.73675000  0.67851000  1
  C  C87  1  0.35859000  0.49751000  0.95561000  1
  C  C88  1  0.45206000  0.53400000  0.89334000  1
  C  C89  1  0.38870000  0.51938000  0.80022000  1
  C  C90  1  0.59902000  0.55658000  0.09044000  1
  C  C91  1  0.71706000  0.34324000  0.26420000  1
  C  C92  1  0.66776000  0.56842000  0.18286000  1
  C  C93  1  0.41151000  0.48803000  0.21320000  1
  C  C94  1  0.34117000  0.47575000  0.12019000  1
  C  C95  1  0.43208000  0.51132000  0.05641000  1
  C  C96  1  0.57191000  0.53754000  0.24450000  1
  C  C97  1  0.62793000  0.84046000  0.70391000  1
  C  C98  1  0.64882000  0.31533000  0.16262000  1
  C  C99  1  0.08307000  0.65885000  0.73770000  1
  C  C100  1  0.12529000  0.68596000  0.84074000  1
  C  C101  1  0.18550000  0.25670000  0.31031000  1
  C  C102  1  0.05030000  0.18465000  0.24749000  1
  C  C103  1  0.89472000  0.20981000  0.72862000  1
  C  C104  1  0.87327000  0.11371000  0.75318000  1
  C  C105  1  0.37433000  0.21557000  0.77723000  1
  C  C106  1  0.46285000  0.21445000  0.87471000  1
  C  C107  1  0.17576000  0.17198000  0.56235000  1
  N  N108  1  0.30405000  0.21134000  0.36467000  1
  N  N109  1  0.34921000  0.22407000  0.93961000  1
  O  O110  1  0.17408000  0.72306000  0.55393000  1
  O  O111  1  0.78567000  0.43594000  0.81828000  1
  O  O112  1  0.86138000  0.27137000  0.79970000  1
  O  O113  1  0.90157000  0.60958000  0.55084000  1
  O  O114  1  0.40822000  0.45213000  0.39017000  1
  O  O115  1  0.67549000  0.54714000  0.72182000  1
  O  O116  1  0.54215000  0.69856000  0.75261000  1
  O  O117  1  0.51199000  0.17531000  0.54721000  1
  O  O118  1  0.48441000  0.19592000  0.71761000  1
  O  O119  1  0.37035000  0.66508000  0.38827000  1
  O  O120  1  0.29252000  0.82535000  0.44933000  1
  O  O121  1  0.27178000  0.30684000  0.25479000  1
  O  O122  1  0.05125000  0.73631000  0.69922000  1
  O  O123  1  0.34496000  0.80741000  0.28198000  1
  O  O124  1  0.13479000  0.45280000  0.27815000  1
  O  O125  1  0.93765000  0.61862000  0.34086000  1
  O  O126  1  0.00429000  0.55807000  0.17888000  1
  O  O127  1  0.94626000  0.72725000  0.19970000  1
  O  O128  1  0.63620000  0.27689000  0.44604000  1
  O  O129  1  0.90872000  0.39041000  0.44908000  1
  O  O130  1  0.43993000  0.33491000  0.61165000  1
  O  O131  1  0.75422000  0.26542000  0.30072000  1
  O  O132  1  0.40206000  0.54786000  0.60975000  1
  O  O133  1  0.87263000  0.38137000  0.65906000  1
