# generated using pymatgen
data_CuH2C7O6
_symmetry_space_group_name_H-M   'P 1'
_cell_length_a   8.54302714
_cell_length_b   11.37913572
_cell_length_c   13.24296599
_cell_angle_alpha   89.99970536
_cell_angle_beta   76.18177624
_cell_angle_gamma   89.99959169
_symmetry_Int_Tables_number   1
_chemical_formula_structural   CuH2C7O6
_chemical_formula_sum   'Cu4 H8 C28 O24'
_cell_volume   1250.11987334
_cell_formula_units_Z   4
loop_
 _symmetry_equiv_pos_site_id
 _symmetry_equiv_pos_as_xyz
  1  'x, y, z'
loop_
 _atom_site_type_symbol
 _atom_site_label
 _atom_site_symmetry_multiplicity
 _atom_site_fract_x
 _atom_site_fract_y
 _atom_site_fract_z
 _atom_site_occupancy
  Cu  Cu1  1  0.08254494  0.41378977  0.52967817  1.0
  Cu  Cu2  1  0.41745378  0.91378964  0.97032551  1.0
  Cu  Cu3  1  0.91738927  0.58617170  0.47029209  1.0
  Cu  Cu4  1  0.58261753  0.08618020  0.02970746  1.0
  H  H1  1  0.54870926  0.59281979  0.46902620  1.0
  H  H2  1  0.76407657  0.87523701  0.25827914  1.0
  H  H3  1  0.95128982  0.09281923  0.03097466  1.0
  H  H4  1  0.73592590  0.37523940  0.24172156  1.0
  H  H5  1  0.45127908  0.40718065  0.53097402  1.0
  H  H6  1  0.23592315  0.12475922  0.74172282  1.0
  H  H7  1  0.04872069  0.90718319  0.96902298  1.0
  H  H8  1  0.26407250  0.62475886  0.75827835  1.0
  C  C1  1  0.54765894  0.65511251  0.40694039  1.0
  C  C2  1  0.41669397  0.66291015  0.36600839  1.0
  C  C3  1  0.53447255  0.81066535  0.25122569  1.0
  C  C4  1  0.66801328  0.81316257  0.28987364  1.0
  C  C5  1  0.68490853  0.73154201  0.37055391  1.0
  C  C6  1  0.26259911  0.59716011  0.40834934  1.0
  C  C7  1  0.51431099  0.88315163  0.16042188  1.0
  C  C8  1  0.95234388  0.15511244  0.09306060  1.0
  C  C9  1  0.08330614  0.16291085  0.13399293  1.0
  C  C10  1  0.96552720  0.31066560  0.24877439  1.0
  C  C11  1  0.83198531  0.31316236  0.21012468  1.0
  C  C12  1  0.81508846  0.23154772  0.12944872  1.0
  C  C13  1  0.23739748  0.09716179  0.09165095  1.0
  C  C14  1  0.98568845  0.38315303  0.33958000  1.0
  C  C15  1  0.45230451  0.34490176  0.59306445  1.0
  C  C16  1  0.58331921  0.33711654  0.63394580  1.0
  C  C17  1  0.46556846  0.18937247  0.74874105  1.0
  C  C18  1  0.33199666  0.18684694  0.71011909  1.0
  C  C19  1  0.31510429  0.26846568  0.62943034  1.0
  C  C20  1  0.73745549  0.40277638  0.59162658  1.0
  C  C21  1  0.48565791  0.11674858  0.83953935  1.0
  C  C22  1  0.04769257  0.84490433  0.90693350  1.0
  C  C23  1  0.91667898  0.83711895  0.86605367  1.0
  C  C24  1  0.03443135  0.68937206  0.75125776  1.0
  C  C25  1  0.16800273  0.68684974  0.78988309  1.0
  C  C26  1  0.18489723  0.76846321  0.87056523  1.0
  C  C27  1  0.76254750  0.90277762  0.90837269  1.0
  C  C28  1  0.01434233  0.61674446  0.66046041  1.0
  O  O1  1  0.40813679  0.73751275  0.28762117  1.0
  O  O2  1  0.80903359  0.72922766  0.40589266  1.0
  O  O3  1  0.27855176  0.49900964  0.45079012  1.0
  O  O4  1  0.13504740  0.64946064  0.40111716  1.0
  O  O5  1  0.43417915  0.83577549  0.10234794  1.0
  O  O6  1  0.58471856  0.98225055  0.15136044  1.0
  O  O7  1  0.09186636  0.23751337  0.21237724  1.0
  O  O8  1  0.69096702  0.22923016  0.09410667  1.0
  O  O9  1  0.22144038  0.99900577  0.04921270  1.0
  O  O10  1  0.36495127  0.14946796  0.09887813  1.0
  O  O11  1  0.06581433  0.33578038  0.39765536  1.0
  O  O12  1  0.91528783  0.48225093  0.34863936  1.0
  O  O13  1  0.59187683  0.26253139  0.71233594  1.0
  O  O14  1  0.19093939  0.27079047  0.59411357  1.0
  O  O15  1  0.72131852  0.50099593  0.54931534  1.0
  O  O16  1  0.86503795  0.35059274  0.59890384  1.0
  O  O17  1  0.56572983  0.16426308  0.89758324  1.0
  O  O18  1  0.41519655  0.01768233  0.84872707  1.0
  O  O19  1  0.90812245  0.76253271  0.78766515  1.0
  O  O20  1  0.30906041  0.77079164  0.90588361  1.0
  O  O21  1  0.77869135  0.00100384  0.95067879  1.0
  O  O22  1  0.63496217  0.85058733  0.90110259  1.0
  O  O23  1  0.93427495  0.66425596  0.60241464  1.0
  O  O24  1  0.08479913  0.51768177  0.65127580  1.0
