# generated using pymatgen
data_H13(C9N)2
_symmetry_space_group_name_H-M   'P 1'
_cell_length_a   17.40980000
_cell_length_b   31.26190000
_cell_length_c   31.26190000
_cell_angle_alpha   90.00000000
_cell_angle_beta   90.00000000
_cell_angle_gamma   90.00000000
_symmetry_Int_Tables_number   1
_chemical_formula_structural   H13(C9N)2
_chemical_formula_sum   'H208 C288 N32'
_cell_volume   17014.70881665
_cell_formula_units_Z   16
loop_
 _symmetry_equiv_pos_site_id
 _symmetry_equiv_pos_as_xyz
  1  'x, y, z'
loop_
 _atom_site_type_symbol
 _atom_site_label
 _atom_site_symmetry_multiplicity
 _atom_site_fract_x
 _atom_site_fract_y
 _atom_site_fract_z
 _atom_site_occupancy
  C  1  1  0.36462900  0.31530500  0.60682700  1
  C  2  1  0.28353800  0.32222900  0.60939300  1
  C  3  1  0.25344500  0.36468300  0.61095100  1
  C  4  1  0.30442700  0.39932900  0.60520600  1
  C  5  1  0.38421600  0.39317500  0.60066300  1
  C  6  1  0.41514100  0.35113000  0.60383300  1
  C  7  1  0.23517200  0.28590100  0.61023700  1
  C  8  1  0.49525100  0.34341800  0.60318100  1
  C  10  1  0.39533100  0.27269500  0.60631900  1
  C  11  1  0.34479400  0.23681300  0.60442800  1
  C  12  1  0.37549700  0.19480600  0.59996000  1
  C  13  1  0.45561200  0.18866200  0.60257000  1
  C  14  1  0.50657700  0.22341500  0.60711800  1
  C  15  1  0.47649700  0.26580500  0.60653900  1
  C  16  1  0.26478200  0.24447700  0.60625500  1
  C  18  1  0.52514800  0.30196400  0.60591900  1
  C  23  1  0.42909100  0.42837100  0.59066400  1
  C  24  1  0.58449200  0.21420400  0.60937400  1
  C  25  1  0.33016900  0.15993200  0.58941000  1
  C  26  1  0.17558000  0.37391500  0.61606200  1
  C  31  1  0.86471400  0.27735800  0.98578300  1
  C  32  1  0.78362800  0.27043400  0.98320800  1
  C  33  1  0.75353600  0.22797800  0.98163400  1
  C  34  1  0.80451200  0.19333300  0.98740200  1
  C  35  1  0.88430600  0.19948600  0.99193800  1
  C  36  1  0.91523200  0.24153400  0.98877400  1
  C  37  1  0.73525800  0.30675900  0.98234500  1
  C  38  1  0.99533600  0.24924900  0.98944300  1
  C  40  1  0.89541000  0.31996700  0.98632700  1
  C  41  1  0.84487000  0.35584800  0.98823700  1
  C  42  1  0.87557000  0.39784800  0.99275700  1
  C  43  1  0.95568600  0.40399900  0.99018200  1
  C  44  1  0.00665300  0.36925100  0.98560400  1
  C  45  1  0.97657600  0.32686100  0.98612600  1
  C  46  1  0.76486200  0.34818100  0.98636500  1
  C  48  1  0.02523400  0.29070200  0.98669500  1
  C  53  1  0.92917800  0.16428100  0.00189900  1
  C  54  1  0.08456700  0.37847000  0.98334300  1
  C  55  1  0.83022800  0.43273400  0.00325400  1
  C  56  1  0.67567200  0.21874200  0.97652300  1
  C  61  1  0.61464800  0.48581400  0.81529500  1
  C  62  1  0.53356200  0.48326200  0.82224300  1
  C  63  1  0.50351000  0.48174900  0.86471000  1
  C  64  1  0.55452200  0.48753500  0.89933600  1
  C  65  1  0.63430400  0.49205200  0.89315000  1
  C  66  1  0.66519100  0.48882800  0.85110200  1
  C  67  1  0.48516500  0.48238200  0.78593000  1
  C  68  1  0.74529400  0.48946100  0.84337000  1
  C  70  1  0.64531500  0.48632300  0.77267800  1
  C  71  1  0.59474300  0.48823300  0.73681000  1
  C  72  1  0.62542400  0.49275200  0.69480000  1
  C  73  1  0.70552800  0.49013300  0.68863300  1
  C  74  1  0.75651600  0.48554900  0.72337200  1
  C  75  1  0.72647600  0.48609300  0.76576800  1
  C  76  1  0.51473900  0.48640300  0.74449900  1
  C  78  1  0.77516200  0.48666500  0.80191400  1
  C  83  1  0.67925000  0.50216000  0.92827600  1
  C  84  1  0.83442200  0.48327800  0.71414000  1
  C  85  1  0.58005200  0.50326000  0.65993000  1
  C  86  1  0.42565700  0.47663100  0.87397000  1
  C  91  1  0.11467200  0.10682400  0.77733500  1
  C  92  1  0.03358400  0.10938300  0.77040000  1
  C  93  1  0.00351600  0.11095300  0.72793900  1
  C  94  1  0.05451500  0.10520200  0.69330000  1
  C  95  1  0.13430500  0.10068200  0.69946400  1
  C  96  1  0.16520200  0.10383600  0.74151800  1
  C  97  1  0.98519800  0.11021600  0.80671900  1
  C  98  1  0.24531000  0.10318100  0.74924300  1
  C  100  1  0.14535000  0.10630500  0.81994900  1
  C  101  1  0.09479800  0.10440100  0.85582300  1
  C  102  1  0.12548300  0.09990400  0.89783300  1
  C  103  1  0.20559700  0.10251000  0.90398700  1
  C  104  1  0.25656800  0.10711500  0.86924500  1
  C  105  1  0.22651100  0.10653300  0.82685200  1
  C  106  1  0.01479100  0.10625400  0.84814900  1
  C  108  1  0.27518300  0.10591900  0.79070300  1
  C  113  1  0.17918800  0.09064400  0.66428400  1
  C  114  1  0.33447700  0.10935200  0.87846700  1
  C  115  1  0.08014300  0.08931700  0.93269000  1
  C  116  1  0.92565200  0.11604900  0.71869200  1
  C  121  1  0.86389800  0.81520200  0.10585000  1
  C  122  1  0.78270800  0.82179200  0.10835200  1
  C  123  1  0.75209400  0.86413700  0.10984400  1
  C  124  1  0.80264000  0.89896500  0.10399700  1
  C  125  1  0.88249800  0.89310200  0.09957300  1
  C  126  1  0.91396200  0.85121400  0.10286600  1
  C  127  1  0.73482200  0.78526500  0.10923800  1
  C  128  1  0.99417600  0.84388200  0.10240700  1
  C  130  1  0.89519800  0.77273500  0.10546500  1
  C  131  1  0.84512800  0.73665600  0.10361700  1
  C  132  1  0.87639800  0.69478700  0.09931100  1
  C  133  1  0.95655400  0.68894600  0.10202100  1
  C  134  1  0.00706100  0.72390900  0.10660200  1
  C  135  1  0.97645600  0.76618400  0.10585000  1
  C  136  1  0.76500600  0.74394900  0.10538000  1
  C  138  1  0.02462000  0.80255400  0.10527900  1
  C  143  1  0.92688000  0.92849000  0.08973400  1
  C  144  1  0.08504400  0.71496500  0.10925200  1
  C  145  1  0.83163000  0.65967100  0.08898400  1
  C  146  1  0.67418400  0.87312900  0.11515700  1
  C  151  1  0.36393900  0.77747600  0.48683800  1
  C  152  1  0.28274200  0.77090900  0.48432700  1
  C  153  1  0.25208800  0.72857300  0.48282000  1
  C  154  1  0.30260000  0.69373200  0.48869300  1
  C  155  1  0.38246300  0.69956900  0.49311100  1
  C  156  1  0.41396900  0.74144800  0.48981900  1
  C  157  1  0.23489000  0.80745100  0.48342500  1
  C  158  1  0.49418900  0.74875700  0.49028300  1
  C  160  1  0.39527200  0.81993300  0.48725400  1
  C  161  1  0.34523200  0.85602500  0.48912500  1
  C  162  1  0.37655200  0.89788100  0.49347900  1
  C  163  1  0.45670800  0.90369900  0.49078800  1
  C  164  1  0.50718100  0.86873000  0.48616900  1
  C  165  1  0.47654200  0.82646200  0.48687300  1
  C  166  1  0.26511100  0.84875400  0.48733700  1
  C  168  1  0.52467500  0.79007600  0.48739100  1
  C  173  1  0.42680600  0.66415900  0.50292100  1
  C  174  1  0.58517000  0.87765800  0.48349200  1
  C  175  1  0.33180900  0.93301600  0.50377200  1
  C  176  1  0.17417200  0.71959700  0.47749800  1
  C  181  1  0.11390200  0.98686100  0.31515800  1
  C  182  1  0.03270600  0.98436600  0.32174600  1
  C  183  1  0.00208600  0.98289200  0.36409100  1
  C  184  1  0.05263000  0.98875200  0.39892000  1
  C  185  1  0.13248500  0.99315300  0.39305600  1
  C  186  1  0.16395900  0.98983900  0.35117100  1
  C  187  1  0.98483000  0.98346700  0.28521200  1
  C  188  1  0.24417400  0.99028700  0.34384900  1
  C  190  1  0.14520700  0.98726700  0.27269600  1
  C  191  1  0.09514400  0.98915200  0.23661400  1
  C  192  1  0.12644200  0.99352400  0.19475400  1
  C  193  1  0.20659500  0.99080900  0.18891900  1
  C  194  1  0.25708600  0.98617700  0.22388000  1
  C  195  1  0.22647100  0.98687700  0.26615300  1
  C  196  1  0.01502700  0.98738300  0.24390300  1
  C  198  1  0.27462900  0.98737900  0.30252800  1
  C  203  1  0.17690600  0.00303500  0.42840600  1
  C  204  1  0.33506900  0.98350600  0.21494200  1
  C  205  1  0.08166700  0.00379200  0.15962300  1
  C  206  1  0.92417600  0.97755900  0.37308300  1
  C  211  1  0.61389600  0.60575600  0.27747300  1
  C  212  1  0.53270000  0.60825700  0.27089300  1
  C  213  1  0.50206800  0.60976100  0.22855200  1
  C  214  1  0.55260300  0.60391300  0.19371700  1
  C  215  1  0.63246600  0.59950800  0.19956600  1
  C  216  1  0.66394200  0.60278100  0.24145600  1
  C  217  1  0.48482600  0.60913400  0.30742800  1
  C  218  1  0.74416200  0.60231700  0.24877600  1
  C  220  1  0.64520600  0.60536500  0.31993500  1
  C  221  1  0.59515400  0.60351300  0.35602100  1
  C  222  1  0.62644600  0.59919800  0.39788600  1
  C  223  1  0.70660200  0.60190400  0.40371500  1
  C  224  1  0.75709100  0.60652700  0.36874900  1
  C  225  1  0.72647000  0.60576200  0.32647700  1
  C  226  1  0.51503300  0.60529200  0.34874000  1
  C  228  1  0.77462200  0.60519300  0.29010000  1
  C  233  1  0.67683200  0.58966900  0.16417300  1
  C  234  1  0.83507600  0.60917500  0.37768300  1
  C  235  1  0.58169000  0.58887900  0.43300900  1
  C  236  1  0.42415300  0.61506700  0.21956600  1
  C  241  1  0.68309200  0.18397300  0.65430400  1
  C  242  1  0.70257000  0.18126400  0.69837600  1
  C  243  1  0.77681600  0.16700700  0.71006800  1
  C  244  1  0.83193400  0.15478200  0.67921900  1
  C  245  1  0.81276000  0.15756600  0.63517200  1
  C  247  1  0.73839400  0.17164000  0.62349000  1
  C  249  1  0.86673600  0.14563000  0.60024400  1
  C  253  1  0.64925000  0.19360200  0.73351800  1
  C  259  1  0.18314500  0.40870800  0.93840300  1
  C  260  1  0.20258100  0.41144600  0.89432700  1
  C  261  1  0.27681500  0.42571300  0.88262300  1
  C  262  1  0.33197900  0.43789300  0.91346200  1
  C  263  1  0.31284300  0.43508500  0.95751600  1
  C  265  1  0.23848100  0.42101000  0.96921000  1
  C  267  1  0.36686800  0.44697500  0.99243700  1
  C  271  1  0.14922100  0.39913400  0.85919200  1
  C  277  1  0.93299800  0.43833500  0.68391800  1
  C  278  1  0.95248600  0.39426200  0.68124000  1
  C  279  1  0.02673900  0.38256700  0.66699300  1
  C  280  1  0.08186100  0.41341600  0.65476700  1
  C  281  1  0.06267100  0.45746000  0.65751200  1
  C  283  1  0.98828800  0.46914600  0.67156400  1
  C  285  1  0.11664200  0.49238500  0.64555800  1
  C  289  1  0.89917200  0.35912400  0.69359700  1
  C  295  1  0.43309100  0.15430700  0.90867400  1
  C  296  1  0.45256700  0.19838000  0.91135700  1
  C  297  1  0.52681200  0.21008000  0.92560800  1
  C  298  1  0.58194800  0.17923900  0.93782400  1
  C  299  1  0.56279100  0.13518900  0.93504400  1
  C  301  1  0.48841500  0.12349700  0.92098600  1
  C  303  1  0.61679000  0.10026600  0.94696300  1
  C  307  1  0.39922300  0.23351600  0.89903200  1
  C  313  1  0.18265700  0.68369100  0.15419800  1
  C  314  1  0.20067400  0.67948800  0.19834300  1
  C  315  1  0.27461700  0.66497500  0.21030600  1
  C  316  1  0.33085300  0.65393600  0.17963000  1
  C  317  1  0.31311300  0.65821900  0.13551100  1
  C  319  1  0.23905600  0.67254900  0.12355200  1
  C  321  1  0.36827700  0.64760500  0.10072500  1
  C  325  1  0.14607400  0.69046900  0.23332600  1
  C  331  1  0.68274200  0.90894200  0.43853000  1
  C  332  1  0.70070400  0.91316800  0.39437700  1
  C  333  1  0.77463300  0.92768700  0.38239500  1
  C  334  1  0.83091800  0.93869400  0.41305500  1
  C  335  1  0.81322600  0.93439200  0.45717900  1
  C  337  1  0.73918200  0.92005800  0.46915800  1
  C  339  1  0.86844500  0.94497000  0.49195000  1
  C  343  1  0.64606200  0.90220600  0.35941100  1
  C  349  1  0.43267500  0.93854400  0.18369900  1
  C  350  1  0.45070000  0.89439400  0.17954200  1
  C  351  1  0.52465400  0.88242400  0.16505100  1
  C  352  1  0.58089200  0.91309400  0.15400700  1
  C  353  1  0.56313900  0.95721500  0.15823200  1
  C  355  1  0.48906500  0.96918200  0.17253300  1
  C  357  1  0.61830200  0.99199200  0.14759300  1
  C  361  1  0.39610300  0.85941900  0.19054700  1
  C  367  1  0.93268200  0.65415000  0.40893800  1
  C  368  1  0.95067800  0.69830000  0.41312500  1
  C  369  1  0.02461700  0.71027900  0.42762900  1
  C  370  1  0.08088100  0.67961500  0.43865800  1
  C  371  1  0.06317700  0.63549200  0.43437200  1
  C  373  1  0.98911600  0.62351500  0.42005700  1
  C  375  1  0.11837700  0.60071800  0.44496600  1
  C  379  1  0.89604200  0.73326900  0.40216300  1
  C  385  1  0.29760100  0.11272400  0.53211000  1
  C  386  1  0.33522500  0.08301100  0.50494000  1
  C  387  1  0.29045700  0.05681600  0.47780100  1
  C  388  1  0.20943900  0.05988300  0.47643900  1
  C  389  1  0.17188700  0.08999300  0.50324100  1
  C  391  1  0.21657300  0.11562800  0.53096200  1
  C  393  1  0.08745100  0.09746500  0.50256300  1
  C  397  1  0.42024000  0.07896300  0.50219500  1
  C  403  1  0.79752200  0.47986500  0.06060300  1
  C  404  1  0.83516800  0.50953300  0.08781500  1
  C  405  1  0.79038800  0.53578900  0.11489000  1
  C  406  1  0.70936000  0.53275300  0.11620900  1
  C  407  1  0.67180600  0.50267800  0.08936800  1
  C  409  1  0.71648800  0.47703400  0.06165900  1
  C  411  1  0.58734200  0.49528600  0.08995500  1
  C  415  1  0.92018900  0.51351600  0.09064200  1
  C  421  1  0.54740300  0.56061500  0.61279000  1
  C  422  1  0.58506800  0.58779100  0.58309200  1
  C  423  1  0.54030500  0.61490100  0.55685900  1
  C  424  1  0.45928100  0.61624400  0.55992000  1
  C  425  1  0.42170000  0.58941600  0.58998900  1
  C  427  1  0.46637700  0.56173400  0.61566200  1
  C  429  1  0.33724700  0.59004300  0.59739400  1
  C  433  1  0.67008800  0.59054600  0.57905900  1
  C  439  1  0.04757100  0.03195400  0.97983700  1
  C  440  1  0.08522700  0.00480600  0.00955200  1
  C  441  1  0.04044400  0.97772600  0.03579600  1
  C  442  1  0.95941400  0.97641400  0.03277900  1
  C  443  1  0.92185400  0.00321400  0.00266900  1
  C  445  1  0.96654200  0.03086500  0.97696400  1
  C  447  1  0.83739600  0.00261000  0.99527100  1
  C  451  1  0.17024300  0.00206200  0.01358700  1
  C  457  1  0.46057300  0.47697600  0.53435600  1
  C  458  1  0.42280400  0.50688100  0.50743800  1
  C  459  1  0.46747800  0.53369400  0.48084000  1
  C  460  1  0.54854700  0.53104800  0.47978100  1
  C  461  1  0.58626800  0.50078100  0.50631200  1
  C  463  1  0.54167300  0.47454500  0.53349200  1
  C  465  1  0.67085200  0.49385600  0.50599500  1
  C  469  1  0.33775300  0.51043500  0.50431900  1
  C  475  1  0.96070600  0.11572500  0.05824900  1
  C  476  1  0.92287700  0.08583700  0.08516400  1
  C  477  1  0.96751800  0.05897800  0.11173000  1
  C  478  1  0.04858800  0.06162400  0.11281900  1
  C  479  1  0.08634900  0.09187600  0.08628500  1
  C  481  1  0.04179900  0.11811200  0.05908500  1
  C  483  1  0.17095000  0.09875900  0.08659600  1
  C  487  1  0.83781600  0.08232100  0.08829900  1
  C  493  1  0.21074900  0.03430400  0.61574200  1
  C  494  1  0.17294900  0.00742400  0.58580800  1
  C  495  1  0.21762400  0.98083800  0.55898300  1
  C  496  1  0.29868800  0.97973400  0.56168300  1
  C  497  1  0.33642600  0.00626200  0.59194000  1
  C  499  1  0.29184100  0.03342500  0.61819300  1
  C  501  1  0.42101100  0.00592800  0.59886200  1
  C  505  1  0.08789800  0.00434600  0.58221600  1
  C  511  1  0.71066900  0.55843300  0.97694800  1
  C  512  1  0.67282800  0.58530600  0.00685700  1
  C  513  1  0.71747600  0.61185900  0.03372500  1
  C  514  1  0.79855600  0.61289900  0.03113400  1
  C  515  1  0.83632200  0.58637100  0.00088100  1
  C  517  1  0.79176700  0.55924900  0.97456800  1
  C  519  1  0.92093000  0.58665600  0.99403000  1
  C  523  1  0.58777200  0.58841500  0.01037100  1
  H  9  1  0.28283000  0.42986100  0.60361900  1
  H  17  1  0.47739800  0.15820700  0.60013900  1
  H  19  1  0.22624700  0.21981300  0.60585200  1
  H  20  1  0.17683300  0.28890500  0.61219800  1
  H  21  1  0.58360200  0.29869200  0.60576500  1
  H  22  1  0.53377500  0.36803500  0.60154900  1
  H  27  1  0.47325000  0.43563500  0.60924200  1
  H  28  1  0.61828700  0.22276200  0.58523900  1
  H  29  1  0.28664900  0.15198000  0.60816100  1
  H  30  1  0.13726800  0.35900200  0.59778400  1
  H  39  1  0.78292200  0.16279800  0.98896000  1
  H  47  1  0.97746700  0.43445800  0.99259700  1
  H  49  1  0.72631600  0.37284000  0.98684500  1
  H  50  1  0.67691200  0.30375700  0.98044400  1
  H  51  1  0.08368700  0.29397400  0.98692500  1
  H  52  1  0.03386600  0.22463500  0.99109000  1
  H  57  1  0.97345800  0.15704500  0.98340000  1
  H  58  1  0.11838900  0.36986800  0.00744800  1
  H  59  1  0.78663200  0.44067000  0.98455500  1
  H  60  1  0.63735400  0.23366200  0.99479400  1
  H  69  1  0.53295700  0.48915400  0.92987500  1
  H  77  1  0.72728600  0.49253800  0.65817100  1
  H  79  1  0.47617500  0.48685700  0.71985000  1
  H  80  1  0.42682300  0.48050800  0.78895300  1
  H  81  1  0.83361200  0.48686700  0.79862900  1
  H  82  1  0.78383400  0.49108300  0.86798200  1
  H  87  1  0.72316200  0.48348200  0.93575400  1
  H  88  1  0.86824200  0.50740300  0.72269700  1
  H  89  1  0.53639500  0.48458900  0.65202600  1
  H  90  1  0.38732300  0.49489600  0.85905400  1
  H  99  1  0.03293000  0.10360900  0.66276400  1
  H  107  1  0.22736700  0.10007600  0.93444600  1
  H  109  1  0.97624400  0.10578500  0.87280600  1
  H  110  1  0.92685800  0.11216000  0.80370600  1
  H  111  1  0.33363500  0.10578600  0.79398100  1
  H  112  1  0.28385100  0.10157900  0.72463200  1
  H  117  1  0.22338600  0.10920000  0.65702900  1
  H  118  1  0.36823100  0.08516600  0.87000400  1
  H  119  1  0.03661900  0.10806000  0.94065800  1
  H  120  1  0.88733400  0.09777600  0.73360800  1
  H  129  1  0.78069200  0.92942100  0.10234300  1
  H  137  1  0.97870200  0.65856100  0.09972500  1
  H  139  1  0.72689000  0.71907200  0.10500500  1
  H  140  1  0.67644100  0.78803500  0.11114100  1
  H  141  1  0.08311500  0.79953400  0.10527900  1
  H  142  1  0.03229400  0.86871100  0.10085200  1
  H  147  1  0.96878800  0.93697300  0.10938000  1
  H  148  1  0.11937100  0.72422200  0.08561400  1
  H  149  1  0.79021000  0.65059300  0.10867400  1
  H  150  1  0.63579800  0.85799800  0.09711500  1
  H  159  1  0.28062900  0.66328300  0.49032100  1
  H  167  1  0.47888000  0.93408500  0.49306900  1
  H  169  1  0.22701100  0.87364100  0.48776900  1
  H  170  1  0.17650000  0.80470000  0.48158200  1
  H  171  1  0.58317200  0.79307900  0.48746200  1
  H  172  1  0.53228200  0.72391900  0.49185000  1
  H  177  1  0.46877100  0.65566300  0.48332200  1
  H  178  1  0.61953600  0.86835000  0.50708900  1
  H  179  1  0.29039300  0.94212600  0.48409700  1
  H  180  1  0.13578700  0.73475000  0.49551900  1
  H  189  1  0.03068500  0.99041200  0.42937500  1
  H  197  1  0.22875000  0.99308600  0.15853100  1
  H  199  1  0.97691000  0.98782400  0.21902800  1
  H  200  1  0.92644400  0.98165000  0.28798100  1
  H  201  1  0.33312300  0.98743100  0.29951400  1
  H  202  1  0.28227900  0.99181300  0.36868800  1
  H  207  1  0.21843400  0.98324300  0.43713200  1
  H  208  1  0.36941400  0.00712900  0.22420800  1
  H  209  1  0.04017400  0.98414200  0.15057200  1
  H  210  1  0.88578300  0.99558400  0.35794300  1
  H  219  1  0.53064400  0.60226300  0.16326600  1
  H  227  1  0.72876200  0.59962400  0.43410000  1
  H  229  1  0.47692300  0.60487300  0.37362000  1
  H  230  1  0.42644400  0.61102400  0.30466600  1
  H  231  1  0.83311800  0.60521500  0.29311100  1
  H  232  1  0.78227200  0.60079400  0.22394100  1
  H  237  1  0.71872200  0.60932200  0.15568000  1
  H  238  1  0.86937800  0.58550400  0.36849000  1
  H  239  1  0.54033300  0.60859900  0.44211300  1
  H  240  1  0.38577700  0.59702900  0.23470700  1
  H  246  1  0.79155400  0.16601700  0.74179000  1
  H  248  1  0.72413200  0.17263800  0.59173900  1
  H  250  1  0.92238800  0.13473700  0.61192900  1
  H  251  1  0.87656400  0.17321500  0.57953900  1
  H  252  1  0.84192200  0.11984500  0.58116000  1
  H  254  1  0.59346400  0.20460200  0.72210500  1
  H  255  1  0.67465400  0.21942200  0.75231100  1
  H  256  1  0.63949600  0.16618200  0.75445400  1
  H  264  1  0.29153700  0.42670100  0.85089400  1
  H  266  1  0.22425300  0.41999300  0.00096500  1
  H  268  1  0.42251500  0.45786700  0.98073900  1
  H  269  1  0.37669600  0.41936900  0.01310900  1
  H  270  1  0.34209400  0.47274700  0.01154900  1
  H  272  1  0.09344800  0.38812700  0.87061400  1
  H  273  1  0.17460800  0.37332900  0.84037000  1
  H  274  1  0.13945000  0.42657000  0.83828100  1
  H  282  1  0.04149400  0.35084500  0.66603700  1
  H  284  1  0.97402000  0.50089700  0.67254300  1
  H  286  1  0.17230500  0.48069300  0.63468500  1
  H  287  1  0.12644600  0.51311300  0.67312800  1
  H  288  1  0.09184000  0.51144600  0.61975000  1
  H  290  1  0.84338200  0.37054000  0.70458500  1
  H  291  1  0.92457800  0.34034700  0.71943100  1
  H  292  1  0.88943000  0.33817200  0.66619000  1
  H  300  1  0.54154100  0.24180600  0.92659000  1
  H  302  1  0.47417500  0.09174300  0.91998400  1
  H  304  1  0.67244400  0.11196000  0.95784200  1
  H  305  1  0.62660200  0.07956500  0.91937700  1
  H  306  1  0.59200600  0.08117900  0.97275500  1
  H  308  1  0.34342900  0.22209800  0.88805100  1
  H  309  1  0.42459900  0.25231100  0.87320500  1
  H  310  1  0.38948800  0.25445300  0.92645600  1
  H  318  1  0.28829200  0.66293400  0.24212400  1
  H  320  1  0.22584000  0.67461600  0.09171300  1
  H  322  1  0.42363900  0.63642600  0.11256400  1
  H  323  1  0.37854600  0.67590800  0.08108700  1
  H  324  1  0.34426200  0.62244700  0.08052100  1
  H  326  1  0.09060300  0.70175100  0.22172000  1
  H  327  1  0.17064000  0.71565900  0.25328700  1
  H  328  1  0.13582600  0.66230400  0.25317500  1
  H  336  1  0.78828000  0.92972500  0.35057300  1
  H  338  1  0.72600600  0.91798200  0.50100200  1
  H  340  1  0.92379600  0.95614300  0.48009500  1
  H  341  1  0.87871800  0.91664800  0.51156100  1
  H  342  1  0.84447300  0.97011900  0.51217900  1
  H  344  1  0.59060400  0.89091400  0.37103300  1
  H  345  1  0.67060000  0.87702800  0.33942500  1
  H  346  1  0.63578000  0.93038000  0.33958200  1
  H  354  1  0.53834000  0.85060300  0.16304900  1
  H  356  1  0.47584300  0.00102200  0.17456500  1
  H  358  1  0.67367800  0.98014400  0.13644600  1
  H  359  1  0.62853700  0.01166500  0.17587800  1
  H  360  1  0.59431000  0.01216300  0.12240400  1
  H  362  1  0.34062300  0.87103000  0.20181200  1
  H  363  1  0.42065900  0.83948400  0.21575900  1
  H  364  1  0.38587000  0.83954200  0.16240100  1
  H  372  1  0.03826600  0.74210000  0.42966900  1
  H  374  1  0.97593400  0.59167500  0.41798100  1
  H  376  1  0.17373700  0.61256900  0.45613300  1
  H  377  1  0.12863900  0.58108700  0.41665700  1
  H  378  1  0.09440100  0.58050500  0.47012800  1
  H  380  1  0.84056700  0.72165100  0.39089400  1
  H  381  1  0.92056800  0.75323900  0.37696600  1
  H  382  1  0.88580000  0.75311400  0.43033200  1
  H  390  1  0.31783300  0.03666700  0.45694500  1
  H  392  1  0.18978300  0.13869400  0.54883300  1
  H  394  1  0.05677300  0.07534800  0.48168800  1
  H  395  1  0.07574400  0.12994900  0.49153400  1
  H  396  1  0.06407500  0.09381600  0.53476200  1
  H  398  1  0.45038500  0.09887900  0.52539900  1
  H  399  1  0.43945300  0.08818400  0.47026200  1
  H  400  1  0.43705900  0.04582000  0.50794300  1
  H  408  1  0.81776400  0.55586100  0.13582100  1
  H  410  1  0.68969800  0.45400600  0.04374000  1
  H  412  1  0.55666400  0.51741500  0.11081800  1
  H  413  1  0.57550400  0.46280600  0.10095200  1
  H  414  1  0.56408100  0.49897700  0.05773600  1
  H  416  1  0.95037000  0.49356500  0.06748500  1
  H  417  1  0.93927000  0.50429700  0.12260100  1
  H  418  1  0.93711600  0.54664200  0.08489600  1
  H  426  1  0.56770400  0.63577300  0.53674200  1
  H  428  1  0.43958600  0.54379500  0.63867400  1
  H  430  1  0.30658700  0.61090900  0.57525900  1
  H  431  1  0.32543800  0.60106300  0.62987400  1
  H  432  1  0.31393800  0.55783200  0.59372200  1
  H  434  1  0.70024400  0.56737000  0.59899700  1
  H  435  1  0.68927300  0.62249200  0.58825800  1
  H  436  1  0.68693000  0.58477500  0.54592300  1
  H  444  1  0.06781800  0.95688600  0.05596400  1
  H  446  1  0.93975200  0.04879000  0.95393900  1
  H  448  1  0.80671200  0.98178800  0.01743200  1
  H  449  1  0.82557000  0.99155400  0.96280600  1
  H  450  1  0.81412800  0.03483400  0.99890100  1
  H  452  1  0.20038800  0.02522300  0.99362700  1
  H  453  1  0.18943300  0.97010900  0.00441300  1
  H  454  1  0.18708900  0.00785700  0.04671800  1
  H  462  1  0.44009100  0.55401500  0.46015400  1
  H  464  1  0.56868700  0.45139500  0.55114600  1
  H  466  1  0.70139200  0.51620600  0.48530900  1
  H  467  1  0.68342000  0.46147800  0.49494000  1
  H  468  1  0.69362600  0.49759500  0.53831600  1
  H  470  1  0.30766100  0.49025700  0.52731800  1
  H  471  1  0.31921200  0.50121600  0.47226100  1
  H  472  1  0.32016000  0.54344700  0.51008700  1
  H  480  1  0.94010300  0.03872300  0.13247200  1
  H  482  1  0.06883900  0.14124200  0.04141900  1
  H  484  1  0.20145700  0.07640300  0.10729100  1
  H  485  1  0.18356500  0.13113700  0.09763400  1
  H  486  1  0.19371200  0.09499200  0.05427400  1
  H  488  1  0.80773500  0.10252800  0.06532300  1
  H  489  1  0.81931400  0.09152700  0.12036700  1
  H  490  1  0.82017000  0.04932000  0.08251400  1
  H  498  1  0.19021600  0.96015100  0.53866800  1
  H  500  1  0.31883900  0.05111400  0.64132000  1
  H  502  1  0.45152900  0.98523900  0.57650300  1
  H  503  1  0.43357800  0.99486800  0.63123700  1
  H  504  1  0.44380300  0.03824700  0.59512300  1
  H  506  1  0.05780600  0.02733500  0.60240700  1
  H  507  1  0.06930000  0.97228800  0.59139000  1
  H  508  1  0.07036100  0.01015900  0.54920100  1
  H  516  1  0.69006600  0.63253300  0.05405200  1
  H  518  1  0.81880400  0.54156300  0.95145100  1
  H  520  1  0.95144200  0.60729400  0.01643500  1
  H  521  1  0.93360600  0.59774300  0.96167700  1
  H  522  1  0.94364200  0.55431600  0.99775000  1
  H  524  1  0.55772100  0.56544200  0.99014300  1
  H  525  1  0.56923900  0.62048300  0.00118900  1
  H  526  1  0.57012600  0.58259700  0.04336600  1
  N  257  1  0.61240200  0.19625100  0.64298900  1
  N  258  1  0.90282600  0.14428400  0.69152500  1
  N  275  1  0.11245500  0.39643700  0.94972700  1
  N  276  1  0.40286000  0.44840100  0.90114400  1
  N  293  1  0.86230800  0.44964900  0.69619200  1
  N  294  1  0.15275200  0.40110100  0.64427900  1
  N  311  1  0.36241500  0.14298900  0.89637100  1
  N  312  1  0.65284000  0.19155200  0.94831300  1
  N  329  1  0.11224800  0.69615300  0.14258100  1
  N  330  1  0.40145100  0.64309500  0.19215700  1
  N  347  1  0.61233400  0.89649300  0.45016400  1
  N  348  1  0.90150400  0.94954100  0.40050900  1
  N  365  1  0.36225600  0.95016500  0.19614000  1
  N  366  1  0.65149000  0.90055200  0.14317900  1
  N  383  1  0.86229000  0.64251900  0.39646300  1
  N  384  1  0.15147300  0.69215800  0.44949500  1
  N  401  1  0.33814700  0.14251800  0.55244500  1
  N  402  1  0.17004700  0.04008600  0.44578500  1
  N  419  1  0.83813200  0.45011300  0.04024400  1
  N  420  1  0.66989300  0.55262400  0.14678900  1
  N  437  1  0.58801400  0.54023800  0.64252900  1
  N  438  1  0.41986300  0.64680600  0.53997900  1
  N  455  1  0.08811700  0.05233200  0.95006600  1
  N  456  1  0.91994800  0.94585600  0.05268400  1
  N  473  1  0.42026300  0.44673200  0.55421400  1
  N  474  1  0.58804200  0.55144000  0.44958800  1
  N  491  1  0.92035000  0.14593400  0.03835800  1
  N  492  1  0.08807200  0.04121300  0.14300500  1
  N  509  1  0.17036400  0.05418100  0.64594800  1
  N  510  1  0.33814300  0.94956300  0.54122700  1
  N  527  1  0.67042200  0.53860700  0.94664600  1
  N  528  1  0.83803400  0.64307600  0.05155500  1
