# generated using pymatgen
data_CdH24C34(NO3)2
_symmetry_space_group_name_H-M   'P 1'
_cell_length_a   9.44774000
_cell_length_b   12.17558000
_cell_length_c   29.15646000
_cell_angle_alpha   90.00000000
_cell_angle_beta   90.00000000
_cell_angle_gamma   90.00000000
_symmetry_Int_Tables_number   1
_chemical_formula_structural   CdH24C34(NO3)2
_chemical_formula_sum   'Cd4 H96 C136 N8 O24'
_cell_volume   3353.91757349
_cell_formula_units_Z   4
loop_
 _symmetry_equiv_pos_site_id
 _symmetry_equiv_pos_as_xyz
  1  'x, y, z'
loop_
 _atom_site_type_symbol
 _atom_site_label
 _atom_site_symmetry_multiplicity
 _atom_site_fract_x
 _atom_site_fract_y
 _atom_site_fract_z
 _atom_site_occupancy
  Cd  Cd1  1  0.50142000  0.84638000  0.02646000  1.0
  Cd  Cd2  1  0.50142000  0.15362000  0.97354000  1.0
  Cd  Cd3  1  0.00142000  0.84638000  0.47354000  1.0
  Cd  Cd4  1  0.00142000  0.15362000  0.52646000  1.0
  H  H1  1  0.74564000  0.51681000  0.08520000  1.0
  H  H2  1  0.80165000  0.37773000  0.14693000  1.0
  H  H3  1  0.56660000  0.57261000  0.24395000  1.0
  H  H4  1  0.50890000  0.70632000  0.18178000  1.0
  H  H5  1  0.74168000  0.48039000  0.29002000  1.0
  H  H6  1  0.57683000  0.41178000  0.28079000  1.0
  H  H7  1  0.70219000  0.03148000  0.31710000  1.0
  H  H8  1  0.91721000  0.05594000  0.36554000  1.0
  H  H9  1  0.02523000  0.24073000  0.37364000  1.0
  H  H10  1  0.91776000  0.40044000  0.33365000  1.0
  H  H11  1  0.58913000  0.17065000  0.23232000  1.0
  H  H12  1  0.48872000  0.25666000  0.26870000  1.0
  H  H13  1  0.48377000  0.24178000  0.34875000  1.0
  H  H14  1  0.29308000  0.94267000  0.29923000  1.0
  H  H15  1  0.33452000  0.23144000  0.41854000  1.0
  H  H16  1  0.14021000  0.93509000  0.36925000  1.0
  H  H17  1  0.55775000  0.62883000  0.95872000  1.0
  H  H18  1  0.42150000  0.47729000  0.92052000  1.0
  H  H19  1  0.15621000  0.47651000  0.92720000  1.0
  H  H20  1  0.93794000  0.56145000  0.96065000  1.0
  H  H21  1  0.82654000  0.70794000  0.00819000  1.0
  H  H22  1  0.84958000  0.88206000  0.05208000  1.0
  H  H23  1  0.00711000  0.02859000  0.08493000  1.0
  H  H24  1  0.26907000  0.01792000  0.06987000  1.0
  H  H25  1  0.74564000  0.48320000  0.91480000  1.0
  H  H26  1  0.80164000  0.62227000  0.85306000  1.0
  H  H27  1  0.56660000  0.42739000  0.75605000  1.0
  H  H28  1  0.50890000  0.29369000  0.81822000  1.0
  H  H29  1  0.74168000  0.51961000  0.70998000  1.0
  H  H30  1  0.57683000  0.58822000  0.71921000  1.0
  H  H31  1  0.70219000  0.96852000  0.68290000  1.0
  H  H32  1  0.91721000  0.94407000  0.63445000  1.0
  H  H33  1  0.02523000  0.75927000  0.62636000  1.0
  H  H34  1  0.91776000  0.59956000  0.66635000  1.0
  H  H35  1  0.58913000  0.82936000  0.76768000  1.0
  H  H36  1  0.48872000  0.74334000  0.73130000  1.0
  H  H37  1  0.48377000  0.75822000  0.65125000  1.0
  H  H38  1  0.29308000  0.05733000  0.70077000  1.0
  H  H39  1  0.33452000  0.76856000  0.58146000  1.0
  H  H40  1  0.14021000  0.06491000  0.63075000  1.0
  H  H41  1  0.55775000  0.37117000  0.04128000  1.0
  H  H42  1  0.42150000  0.52271000  0.07948000  1.0
  H  H43  1  0.15621000  0.52349000  0.07280000  1.0
  H  H44  1  0.93794000  0.43855000  0.03935000  1.0
  H  H45  1  0.82654000  0.29206000  0.99181000  1.0
  H  H46  1  0.84958000  0.11794000  0.94792000  1.0
  H  H47  1  0.00711000  0.97142000  0.91507000  1.0
  H  H48  1  0.26907000  0.98208000  0.93012000  1.0
  H  H49  1  0.24564000  0.51681000  0.41480000  1.0
  H  H50  1  0.30165000  0.37773000  0.35307000  1.0
  H  H51  1  0.06660000  0.57261000  0.25605000  1.0
  H  H52  1  0.00890000  0.70632000  0.31822000  1.0
  H  H53  1  0.24168000  0.48039000  0.20998000  1.0
  H  H54  1  0.07683000  0.41178000  0.21921000  1.0
  H  H55  1  0.20219000  0.03148000  0.18290000  1.0
  H  H56  1  0.41721000  0.05594000  0.13446000  1.0
  H  H57  1  0.52523000  0.24073000  0.12636000  1.0
  H  H58  1  0.41776000  0.40044000  0.16635000  1.0
  H  H59  1  0.08913000  0.17065000  0.26768000  1.0
  H  H60  1  0.98872000  0.25666000  0.23130000  1.0
  H  H61  1  0.98377000  0.24178000  0.15125000  1.0
  H  H62  1  0.79308000  0.94267000  0.20077000  1.0
  H  H63  1  0.83452000  0.23144000  0.08146000  1.0
  H  H64  1  0.64021000  0.93509000  0.13075000  1.0
  H  H65  1  0.05776000  0.62883000  0.54128000  1.0
  H  H66  1  0.92150000  0.47729000  0.57948000  1.0
  H  H67  1  0.65620000  0.47651000  0.57280000  1.0
  H  H68  1  0.43794000  0.56145000  0.53935000  1.0
  H  H69  1  0.32654000  0.70794000  0.49181000  1.0
  H  H70  1  0.34958000  0.88206000  0.44792000  1.0
  H  H71  1  0.50711000  0.02859000  0.41507000  1.0
  H  H72  1  0.76907000  0.01792000  0.43013000  1.0
  H  H73  1  0.24564000  0.48320000  0.58520000  1.0
  H  H74  1  0.30165000  0.62227000  0.64693000  1.0
  H  H75  1  0.06660000  0.42739000  0.74395000  1.0
  H  H76  1  0.00890000  0.29369000  0.68178000  1.0
  H  H77  1  0.24168000  0.51961000  0.79002000  1.0
  H  H78  1  0.07683000  0.58822000  0.78078000  1.0
  H  H79  1  0.20219000  0.96852000  0.81710000  1.0
  H  H80  1  0.41721000  0.94407000  0.86554000  1.0
  H  H81  1  0.52523000  0.75927000  0.87364000  1.0
  H  H82  1  0.41776000  0.59956000  0.83365000  1.0
  H  H83  1  0.08913000  0.82936000  0.73232000  1.0
  H  H84  1  0.98872000  0.74334000  0.76870000  1.0
  H  H85  1  0.98377000  0.75822000  0.84875000  1.0
  H  H86  1  0.79308000  0.05733000  0.79923000  1.0
  H  H87  1  0.83452000  0.76856000  0.91854000  1.0
  H  H88  1  0.64021000  0.06491000  0.86925000  1.0
  H  H89  1  0.05776000  0.37117000  0.45872000  1.0
  H  H90  1  0.92150000  0.52271000  0.42052000  1.0
  H  H91  1  0.65620000  0.52349000  0.42720000  1.0
  H  H92  1  0.43794000  0.43855000  0.46065000  1.0
  H  H93  1  0.32654000  0.29206000  0.50819000  1.0
  H  H94  1  0.34958000  0.11794000  0.55208000  1.0
  H  H95  1  0.50711000  0.97142000  0.58493000  1.0
  H  H96  1  0.76907000  0.98208000  0.56987000  1.0
  C  C1  1  0.59028000  0.69868000  0.09257000  1.0
  C  C2  1  0.62470000  0.61959000  0.12997000  1.0
  C  C3  1  0.70786000  0.52690000  0.12020000  1.0
  C  C4  1  0.73973000  0.45099000  0.15403000  1.0
  C  C5  1  0.69008000  0.46761000  0.19897000  1.0
  C  C6  1  0.60662000  0.55959000  0.20943000  1.0
  C  C7  1  0.57413000  0.63463000  0.17469000  1.0
  C  C8  1  0.69261000  0.40405000  0.27760000  1.0
  C  C9  1  0.74973000  0.30637000  0.30292000  1.0
  C  C10  1  0.68849000  0.20139000  0.29791000  1.0
  C  C11  1  0.75011000  0.11218000  0.32070000  1.0
  C  C12  1  0.87052000  0.12584000  0.34789000  1.0
  C  C13  1  0.93082000  0.22987000  0.35284000  1.0
  C  C14  1  0.87044000  0.31932000  0.33032000  1.0
  C  C15  1  0.55885000  0.18459000  0.26821000  1.0
  C  C16  1  0.39746000  0.09235000  0.31928000  1.0
  C  C17  1  0.40819000  0.17525000  0.35264000  1.0
  C  C18  1  0.30053000  0.00575000  0.32557000  1.0
  C  C19  1  0.32442000  0.16949000  0.39189000  1.0
  C  C20  1  0.21559000  0.00205000  0.36458000  1.0
  C  C21  1  0.22770000  0.08365000  0.39860000  1.0
  C  C22  1  0.13942000  0.08195000  0.44100000  1.0
  C  C23  1  0.44258000  0.62662000  0.96000000  1.0
  C  C24  1  0.36544000  0.54167000  0.93889000  1.0
  C  C25  1  0.21956000  0.54170000  0.94252000  1.0
  C  C26  1  0.15105000  0.62586000  0.96750000  1.0
  C  C27  1  0.00139000  0.62750000  0.97521000  1.0
  C  C28  1  0.93966000  0.70792000  0.00115000  1.0
  C  C29  1  0.02336000  0.79481000  0.02036000  1.0
  C  C30  1  0.96352000  0.88077000  0.04659000  1.0
  C  C31  1  0.05027000  0.96157000  0.06462000  1.0
  C  C32  1  0.19663000  0.95617000  0.05641000  1.0
  C  C33  1  0.17236000  0.79623000  0.01357000  1.0
  C  C34  1  0.23767000  0.70913000  0.98715000  1.0
  C  C35  1  0.59028000  0.30132000  0.90743000  1.0
  C  C36  1  0.62469000  0.38041000  0.87003000  1.0
  C  C37  1  0.70786000  0.47311000  0.87980000  1.0
  C  C38  1  0.73973000  0.54901000  0.84597000  1.0
  C  C39  1  0.69008000  0.53239000  0.80103000  1.0
  C  C40  1  0.60662000  0.44041000  0.79057000  1.0
  C  C41  1  0.57413000  0.36537000  0.82531000  1.0
  C  C42  1  0.69261000  0.59595000  0.72240000  1.0
  C  C43  1  0.74973000  0.69363000  0.69708000  1.0
  C  C44  1  0.68849000  0.79862000  0.70209000  1.0
  C  C45  1  0.75011000  0.88782000  0.67930000  1.0
  C  C46  1  0.87052000  0.87416000  0.65211000  1.0
  C  C47  1  0.93082000  0.77014000  0.64716000  1.0
  C  C48  1  0.87044000  0.68068000  0.66968000  1.0
  C  C49  1  0.55885000  0.81542000  0.73179000  1.0
  C  C50  1  0.39746000  0.90766000  0.68072000  1.0
  C  C51  1  0.40819000  0.82475000  0.64736000  1.0
  C  C52  1  0.30053000  0.99426000  0.67442000  1.0
  C  C53  1  0.32442000  0.83052000  0.60811000  1.0
  C  C54  1  0.21559000  0.99795000  0.63542000  1.0
  C  C55  1  0.22770000  0.91635000  0.60140000  1.0
  C  C56  1  0.13942000  0.91805000  0.55900000  1.0
  C  C57  1  0.44258000  0.37338000  0.04000000  1.0
  C  C58  1  0.36544000  0.45833000  0.06111000  1.0
  C  C59  1  0.21956000  0.45830000  0.05748000  1.0
  C  C60  1  0.15105000  0.37414000  0.03250000  1.0
  C  C61  1  0.00139000  0.37250000  0.02478000  1.0
  C  C62  1  0.93965000  0.29208000  0.99885000  1.0
  C  C63  1  0.02336000  0.20519000  0.97964000  1.0
  C  C64  1  0.96352000  0.11923000  0.95341000  1.0
  C  C65  1  0.05027000  0.03844000  0.93538000  1.0
  C  C66  1  0.19663000  0.04383000  0.94359000  1.0
  C  C67  1  0.17236000  0.20377000  0.98643000  1.0
  C  C68  1  0.23767000  0.29087000  0.01285000  1.0
  C  C69  1  0.09028000  0.69868000  0.40743000  1.0
  C  C70  1  0.12470000  0.61959000  0.37003000  1.0
  C  C71  1  0.20786000  0.52690000  0.37980000  1.0
  C  C72  1  0.23973000  0.45099000  0.34597000  1.0
  C  C73  1  0.19008000  0.46761000  0.30103000  1.0
  C  C74  1  0.10662000  0.55959000  0.29057000  1.0
  C  C75  1  0.07413000  0.63463000  0.32531000  1.0
  C  C76  1  0.19262000  0.40405000  0.22240000  1.0
  C  C77  1  0.24973000  0.30637000  0.19708000  1.0
  C  C78  1  0.18849000  0.20138000  0.20209000  1.0
  C  C79  1  0.25011000  0.11218000  0.17930000  1.0
  C  C80  1  0.37052000  0.12584000  0.15211000  1.0
  C  C81  1  0.43082000  0.22987000  0.14716000  1.0
  C  C82  1  0.37044000  0.31932000  0.16968000  1.0
  C  C83  1  0.05885000  0.18459000  0.23179000  1.0
  C  C84  1  0.89746000  0.09235000  0.18072000  1.0
  C  C85  1  0.90819000  0.17525000  0.14736000  1.0
  C  C86  1  0.80053000  0.00575000  0.17442000  1.0
  C  C87  1  0.82442000  0.16949000  0.10811000  1.0
  C  C88  1  0.71559000  0.00205000  0.13542000  1.0
  C  C89  1  0.72770000  0.08365000  0.10140000  1.0
  C  C90  1  0.63942000  0.08195000  0.05900000  1.0
  C  C91  1  0.94258000  0.62662000  0.54000000  1.0
  C  C92  1  0.86544000  0.54167000  0.56111000  1.0
  C  C93  1  0.71955000  0.54170000  0.55748000  1.0
  C  C94  1  0.65105000  0.62586000  0.53250000  1.0
  C  C95  1  0.50138000  0.62750000  0.52478000  1.0
  C  C96  1  0.43966000  0.70792000  0.49885000  1.0
  C  C97  1  0.52336000  0.79481000  0.47964000  1.0
  C  C98  1  0.46353000  0.88077000  0.45341000  1.0
  C  C99  1  0.55028000  0.96157000  0.43538000  1.0
  C  C100  1  0.69663000  0.95617000  0.44359000  1.0
  C  C101  1  0.67236000  0.79623000  0.48643000  1.0
  C  C102  1  0.73767000  0.70913000  0.51285000  1.0
  C  C103  1  0.09028000  0.30132000  0.59257000  1.0
  C  C104  1  0.12470000  0.38041000  0.62997000  1.0
  C  C105  1  0.20786000  0.47311000  0.62020000  1.0
  C  C106  1  0.23973000  0.54901000  0.65403000  1.0
  C  C107  1  0.19008000  0.53239000  0.69897000  1.0
  C  C108  1  0.10662000  0.44041000  0.70943000  1.0
  C  C109  1  0.07413000  0.36537000  0.67469000  1.0
  C  C110  1  0.19262000  0.59595000  0.77760000  1.0
  C  C111  1  0.24973000  0.69363000  0.80292000  1.0
  C  C112  1  0.18849000  0.79862000  0.79791000  1.0
  C  C113  1  0.25011000  0.88782000  0.82069000  1.0
  C  C114  1  0.37052000  0.87416000  0.84789000  1.0
  C  C115  1  0.43082000  0.77014000  0.85284000  1.0
  C  C116  1  0.37044000  0.68068000  0.83032000  1.0
  C  C117  1  0.05885000  0.81542000  0.76821000  1.0
  C  C118  1  0.89746000  0.90766000  0.81927000  1.0
  C  C119  1  0.90819000  0.82475000  0.85263000  1.0
  C  C120  1  0.80053000  0.99426000  0.82557000  1.0
  C  C121  1  0.82442000  0.83052000  0.89189000  1.0
  C  C122  1  0.71559000  0.99795000  0.86458000  1.0
  C  C123  1  0.72770000  0.91635000  0.89860000  1.0
  C  C124  1  0.63942000  0.91805000  0.94099000  1.0
  C  C125  1  0.94258000  0.37338000  0.46000000  1.0
  C  C126  1  0.86544000  0.45833000  0.43889000  1.0
  C  C127  1  0.71955000  0.45830000  0.44252000  1.0
  C  C128  1  0.65105000  0.37414000  0.46750000  1.0
  C  C129  1  0.50138000  0.37250000  0.47522000  1.0
  C  C130  1  0.43966000  0.29208000  0.50115000  1.0
  C  C131  1  0.52336000  0.20519000  0.52036000  1.0
  C  C132  1  0.46353000  0.11923000  0.54659000  1.0
  C  C133  1  0.55028000  0.03844000  0.56462000  1.0
  C  C134  1  0.69663000  0.04383000  0.55640000  1.0
  C  C135  1  0.67236000  0.20377000  0.51357000  1.0
  C  C136  1  0.73767000  0.29087000  0.48715000  1.0
  N  N1  1  0.38054000  0.70804000  0.98296000  1.0
  N  N2  1  0.25583000  0.87612000  0.03171000  1.0
  N  N3  1  0.38054000  0.29196000  0.01704000  1.0
  N  N4  1  0.25583000  0.12389000  0.96829000  1.0
  N  N5  1  0.88054000  0.70804000  0.51704000  1.0
  N  N6  1  0.75583000  0.87612000  0.46829000  1.0
  N  N7  1  0.88054000  0.29196000  0.48296000  1.0
  N  N8  1  0.75583000  0.12389000  0.53171000  1.0
  O  O1  1  0.17794000  0.14428000  0.47416000  1.0
  O  O2  1  0.64267000  0.68286000  0.05287000  1.0
  O  O3  1  0.02836000  0.02212000  0.44216000  1.0
  O  O4  1  0.50692000  0.77894000  0.10181000  1.0
  O  O5  1  0.72927000  0.38828000  0.22962000  1.0
  O  O6  1  0.47729000  0.08832000  0.28013000  1.0
  O  O7  1  0.17794000  0.85572000  0.52584000  1.0
  O  O8  1  0.64267000  0.31714000  0.94713000  1.0
  O  O9  1  0.02836000  0.97788000  0.55784000  1.0
  O  O10  1  0.50692000  0.22106000  0.89819000  1.0
  O  O11  1  0.72927000  0.61173000  0.77038000  1.0
  O  O12  1  0.47729000  0.91168000  0.71987000  1.0
  O  O13  1  0.67794000  0.14428000  0.02584000  1.0
  O  O14  1  0.14267000  0.68286000  0.44713000  1.0
  O  O15  1  0.52836000  0.02212000  0.05784000  1.0
  O  O16  1  0.00691000  0.77894000  0.39819000  1.0
  O  O17  1  0.22928000  0.38828000  0.27038000  1.0
  O  O18  1  0.97729000  0.08832000  0.21987000  1.0
  O  O19  1  0.67794000  0.85572000  0.97416000  1.0
  O  O20  1  0.14267000  0.31714000  0.55287000  1.0
  O  O21  1  0.52836000  0.97788000  0.94215000  1.0
  O  O22  1  0.00691000  0.22106000  0.60181000  1.0
  O  O23  1  0.22928000  0.61173000  0.72962000  1.0
  O  O24  1  0.97729000  0.91168000  0.78013000  1.0
