# generated using pymatgen
data_Ni2H19C42N3O13
_symmetry_space_group_name_H-M   'P 1'
_cell_length_a   9.10979000
_cell_length_b   12.56298847
_cell_length_c   42.84307843
_cell_angle_alpha   81.93877815
_cell_angle_beta   83.97426845
_cell_angle_gamma   71.51099134
_symmetry_Int_Tables_number   1
_chemical_formula_structural   Ni2H19C42N3O13
_chemical_formula_sum   'Ni8 H76 C168 N12 O52'
_cell_volume   4594.62772219
_cell_formula_units_Z   4
loop_
 _symmetry_equiv_pos_site_id
 _symmetry_equiv_pos_as_xyz
  1  'x, y, z'
loop_
 _atom_site_type_symbol
 _atom_site_label
 _atom_site_symmetry_multiplicity
 _atom_site_fract_x
 _atom_site_fract_y
 _atom_site_fract_z
 _atom_site_occupancy
  Ni  Ni0  1  0.76156000  0.68131000  0.26237000  1
  Ni  Ni1  1  0.39607000  0.72583000  0.27559000  1
  Ni  Ni2  1  0.56130000  0.52284000  0.23955000  1
  Ni  Ni3  1  0.19593000  0.58571000  0.24571000  1
  Ni  Ni4  1  0.21814000  0.54948000  0.76515000  1
  Ni  Ni5  1  0.52676000  0.42052000  0.72151000  1
  Ni  Ni6  1  0.51484000  0.36170000  0.79434000  1
  Ni  Ni7  1  0.85633000  0.27109000  0.75032000  1
  H  H8  1  0.76659000  0.92129000  0.89942000  1
  H  H9  1  0.11045000  0.57414000  0.94624000  1
  H  H10  1  0.33284000  0.84161000  0.34637000  1
  H  H11  1  0.11813000  0.46574000  0.99875000  1
  H  H12  1  0.19244000  0.61360000  0.12582000  1
  H  H13  1  0.93744000  0.05464000  0.01476000  1
  H  H14  1  0.58918000  0.11945000  0.36511000  1
  H  H15  1  0.09702000  0.60957000  0.18163000  1
  H  H16  1  0.65700000  0.02732000  0.31578000  1
  H  H17  1  0.54953000  0.89054000  0.49514000  1
  H  H18  1  0.26411000  0.93476000  0.39511000  1
  H  H19  1  0.89765000  0.95151000  0.06624000  1
  H  H20  1  0.55541000  0.73360000  0.22397000  1
  H  H21  1  0.92631000  0.88633000  0.33680000  1
  H  H22  1  0.85719000  0.46221000  0.10591000  1
  H  H23  1  0.32340000  0.10746000  0.99722000  1
  H  H24  1  0.60715000  0.69408000  0.15050000  1
  H  H25  1  0.78252000  0.86581000  0.38818000  1
  H  H26  1  0.78070000  0.43730000  0.16263000  1
  H  H27  1  0.27429000  0.72551000  0.43104000  1
  H  H28  1  0.10811000  0.82390000  0.16110000  1
  H  H29  1  0.59853000  0.75950000  0.09355000  1
  H  H30  1  0.37591000  0.09896000  0.94002000  1
  H  H31  1  0.12887000  0.74211000  0.48264000  1
  H  H32  1  0.10177000  0.89399000  0.10429000  1
  H  H33  1  0.39026000  0.48982000  0.34386000  1
  H  H34  1  0.38083000  0.52048000  0.28769000  1
  H  H35  1  0.02498000  0.53117000  0.33020000  1
  H  H36  1  0.70372000  0.24377000  0.19706000  1
  H  H37  1  0.89017000  0.38296000  0.33517000  1
  H  H38  1  0.28338000  0.83214000  0.61066000  1
  H  H39  1  0.88488000  0.51087000  0.38233000  1
  H  H40  1  0.70022000  0.55173000  0.05884000  1
  H  H41  1  0.76984000  0.20577000  0.14165000  1
  H  H42  1  0.39760000  0.36413000  0.39322000  1
  H  H43  1  0.76842000  0.59187000  0.00255000  1
  H  H44  1  0.23769000  0.77899000  0.66775000  1
  H  H45  1  0.89616000  0.26573000  0.38651000  1
  H  H46  1  0.21840000  0.32625000  0.18179000  1
  H  H47  1  0.93525000  0.64699000  0.50138000  1
  H  H48  1  0.42470000  0.46994000  0.49481000  1
  H  H49  1  0.19021000  0.53468000  0.59028000  1
  H  H50  1  0.70641000  0.74313000  0.85911000  1
  H  H51  1  0.10245000  0.28040000  0.93341000  1
  H  H52  1  0.79341000  0.64852000  0.55324000  1
  H  H53  1  0.20936000  0.87418000  0.86110000  1
  H  H54  1  0.38598000  0.55331000  0.01845000  1
  H  H55  1  0.28504000  0.29612000  0.12570000  1
  H  H56  1  0.28333000  0.29878000  0.88755000  1
  H  H57  1  0.12938000  0.48860000  0.64692000  1
  H  H58  1  0.70761000  0.65503000  0.81098000  1
  H  H59  1  0.43331000  0.54518000  0.96148000  1
  H  H60  1  0.21016000  0.78825000  0.81303000  1
  H  H61  1  0.43648000  0.40928000  0.55155000  1
  H  H62  1  0.86960000  0.94829000  0.46408000  1
  H  H63  1  0.32640000  0.34638000  0.75726000  1
  H  H64  1  0.71566000  0.47012000  0.87824000  1
  H  H65  1  0.56435000  0.07818000  0.02947000  1
  H  H66  1  0.89628000  0.48569000  0.83173000  1
  H  H67  1  0.69868000  0.38509000  0.62749000  1
  H  H68  1  0.62602000  0.12183000  0.97288000  1
  H  H69  1  0.68739000  0.46324000  0.75934000  1
  H  H70  1  0.46093000  0.06088000  0.63510000  1
  H  H71  1  0.86977000  0.88485000  0.52086000  1
  H  H72  1  0.45824000  0.11544000  0.68836000  1
  H  H73  1  0.83049000  0.32941000  0.57652000  1
  H  H74  1  0.93828000  0.05028000  0.61763000  1
  H  H75  1  0.03078000  0.45531000  0.48108000  1
  H  H76  1  0.94196000  0.09177000  0.67200000  1
  H  H77  1  0.05529000  0.18315000  0.84958000  1
  H  H78  1  0.14161000  0.27970000  0.66899000  1
  H  H79  1  0.10381000  0.39117000  0.42841000  1
  H  H80  1  0.27288000  0.23849000  0.61680000  1
  H  H81  1  0.13584000  0.06639000  0.89977000  1
  H  H82  1  0.68286000  0.04106000  0.84976000  1
  H  H83  1  0.43826000  0.94132000  0.54770000  1
  C  C84  1  0.03922000  0.80145000  0.93433000  1
  C  C85  1  0.34881000  0.95582000  0.37774000  1
  C  C86  1  0.03999000  0.73757000  0.96406000  1
  C  C87  1  0.99151000  0.96944000  0.95881000  1
  C  C88  1  0.07886000  0.61894000  0.96699000  1
  C  C89  1  0.42217000  0.03300000  0.38346000  1
  C  C90  1  0.38804000  0.90302000  0.35015000  1
  C  C91  1  0.08406000  0.55709000  0.99693000  1
  C  C92  1  0.00455000  0.79350000  0.99132000  1
  C  C93  1  0.98211000  0.91013000  0.98878000  1
  C  C94  1  0.53205000  0.05986000  0.36083000  1
  C  C95  1  0.04414000  0.61346000  0.02427000  1
  C  C96  1  0.50140000  0.92671000  0.32792000  1
  C  C97  1  0.99939000  0.73205000  0.02125000  1
  C  C98  1  0.94923000  0.96559000  0.01618000  1
  C  C99  1  0.57118000  0.00707000  0.33302000  1
  C  C100  1  0.54402000  0.86759000  0.29942000  1
  C  C101  1  0.92946000  0.90642000  0.04556000  1
  C  C102  1  0.45996000  0.01215000  0.43945000  1
  C  C103  1  0.95663000  0.78895000  0.04830000  1
  C  C104  1  0.10205000  0.57565000  0.13392000  1
  C  C105  1  0.05352000  0.55341000  0.05469000  1
  C  C106  1  0.05055000  0.57106000  0.16573000  1
  C  C107  1  0.94992000  0.72656000  0.07782000  1
  C  C108  1  0.01886000  0.54976000  0.11191000  1
  C  C109  1  0.93127000  0.52390000  0.17633000  1
  C  C110  1  0.86129000  0.53173000  0.20891000  1
  C  C111  1  0.91373000  0.49011000  0.12266000  1
  C  C112  1  0.86988000  0.47694000  0.15481000  1
  C  C113  1  0.36074000  0.67986000  0.19071000  1
  C  C114  1  0.91268000  0.80495000  0.34604000  1
  C  C115  1  0.49633000  0.73788000  0.14063000  1
  C  C116  1  0.35766000  0.74834000  0.15951000  1
  C  C117  1  0.08764000  0.71925000  0.30174000  1
  C  C118  1  0.63437000  0.54589000  0.31256000  1
  C  C119  1  0.83121000  0.79349000  0.37514000  1
  C  C120  1  0.21592000  0.81189000  0.14669000  1
  C  C121  1  0.49196000  0.77699000  0.10844000  1
  C  C122  1  0.98016000  0.71103000  0.32931000  1
  C  C123  1  0.34984000  0.02693000  0.98806000  1
  C  C124  1  0.21201000  0.85155000  0.11442000  1
  C  C125  1  0.33333000  0.92949000  0.04177000  1
  C  C126  1  0.34927000  0.82775000  0.09482000  1
  C  C127  1  0.33678000  0.71266000  0.45211000  1
  C  C128  1  0.37881000  0.02219000  0.95539000  1
  C  C129  1  0.58440000  0.68253000  0.42051000  1
  C  C130  1  0.25391000  0.72129000  0.48156000  1
  C  C131  1  0.81725000  0.68799000  0.38792000  1
  C  C132  1  0.35472000  0.92813000  0.00864000  1
  C  C133  1  0.63971000  0.45012000  0.33698000  1
  C  C134  1  0.96723000  0.60516000  0.34222000  1
  C  C135  1  0.49896000  0.68975000  0.44993000  1
  C  C136  1  0.50128000  0.43775000  0.35232000  1
  C  C137  1  0.88749000  0.59353000  0.37164000  1
  C  C138  1  0.33242000  0.70390000  0.50937000  1
  C  C139  1  0.78225000  0.37891000  0.34773000  1
  C  C140  1  0.25201000  0.70755000  0.53935000  1
  C  C141  1  0.57687000  0.67711000  0.47745000  1
  C  C142  1  0.40849000  0.91918000  0.94272000  1
  C  C143  1  0.41588000  0.37344000  0.21804000  1
  C  C144  1  0.38123000  0.82589000  0.99602000  1
  C  C145  1  0.81591000  0.66445000  0.44512000  1
  C  C146  1  0.49398000  0.68199000  0.50724000  1
  C  C147  1  0.35442000  0.73344000  0.04896000  1
  C  C148  1  0.61161000  0.25250000  0.18192000  1
  C  C149  1  0.50524000  0.36514000  0.38016000  1
  C  C150  1  0.73648000  0.66416000  0.47515000  1
  C  C151  1  0.43406000  0.91276000  0.90983000  1
  C  C152  1  0.45547000  0.29898000  0.19245000  1
  C  C153  1  0.24833000  0.75753000  0.61851000  1
  C  C154  1  0.40755000  0.82148000  0.96307000  1
  C  C155  1  0.64943000  0.23034000  0.15049000  1
  C  C156  1  0.37658000  0.72867000  0.01618000  1
  C  C157  1  0.78595000  0.31063000  0.37654000  1
  C  C158  1  0.70078000  0.49205000  0.04283000  1
  C  C159  1  0.64687000  0.30868000  0.39379000  1
  C  C160  1  0.24947000  0.68315000  0.59678000  1
  C  C161  1  0.57220000  0.66866000  0.53475000  1
  C  C162  1  0.22090000  0.72792000  0.65087000  1
  C  C163  1  0.59942000  0.37730000  0.08536000  1
  C  C164  1  0.74432000  0.51337000  0.01088000  1
  C  C165  1  0.48887000  0.66976000  0.56432000  1
  C  C166  1  0.81294000  0.65527000  0.50273000  1
  C  C167  1  0.53172000  0.25466000  0.12950000  1
  C  C168  1  0.33902000  0.30017000  0.17315000  1
  C  C169  1  0.65142000  0.39708000  0.05367000  1
  C  C170  1  0.73194000  0.65615000  0.53231000  1
  C  C171  1  0.37670000  0.28105000  0.14149000  1
  C  C172  1  0.19493000  0.59068000  0.60695000  1
  C  C173  1  0.42872000  0.71989000  0.95051000  1
  C  C174  1  0.39325000  0.62832000  0.00332000  1
  C  C175  1  0.57488000  0.34498000  0.44835000  1
  C  C176  1  0.19146000  0.62508000  0.66136000  1
  C  C177  1  0.74309000  0.43856000  0.98942000  1
  C  C178  1  0.45691000  0.81041000  0.86430000  1
  C  C179  1  0.16132000  0.56407000  0.63909000  1
  C  C180  1  0.45053000  0.71731000  0.91766000  1
  C  C181  1  0.42094000  0.62357000  0.97082000  1
  C  C182  1  0.59832000  0.75649000  0.84848000  1
  C  C183  1  0.78682000  0.45820000  0.95717000  1
  C  C184  1  0.31872000  0.83150000  0.84945000  1
  C  C185  1  0.65042000  0.32197000  0.03237000  1
  C  C186  1  0.49350000  0.38482000  0.50275000  1
  C  C187  1  0.57430000  0.30963000  0.48084000  1
  C  C188  1  0.24217000  0.56490000  0.69229000  1
  C  C189  1  0.72440000  0.15874000  0.43712000  1
  C  C190  1  0.05731000  0.32485000  0.91120000  1
  C  C191  1  0.56695000  0.20349000  0.07579000  1
  C  C192  1  0.69345000  0.34390000  0.00010000  1
  C  C193  1  0.59884000  0.70557000  0.82138000  1
  C  C194  1  0.15965000  0.33565000  0.88521000  1
  C  C195  1  0.31945000  0.78155000  0.82225000  1
  C  C196  1  0.45805000  0.70862000  0.81014000  1
  C  C197  1  0.60407000  0.22596000  0.04322000  1
  C  C198  1  0.49909000  0.34985000  0.53507000  1
  C  C199  1  0.89718000  0.37538000  0.90906000  1
  C  C200  1  0.65576000  0.19768000  0.49156000  1
  C  C201  1  0.73209000  0.12142000  0.46966000  1
  C  C202  1  0.45145000  0.61263000  0.79493000  1
  C  C203  1  0.10266000  0.39647000  0.85658000  1
  C  C204  1  0.68271000  0.27303000  0.97837000  1
  C  C205  1  0.21153000  0.41322000  0.82966000  1
  C  C206  1  0.72987000  0.29532000  0.94635000  1
  C  C207  1  0.83932000  0.43227000  0.88019000  1
  C  C208  1  0.59551000  0.15422000  0.02145000  1
  C  C209  1  0.58362000  0.23846000  0.54598000  1
  C  C210  1  0.94175000  0.44244000  0.85398000  1
  C  C211  1  0.65975000  0.16182000  0.52420000  1
  C  C212  1  0.81175000  0.00874000  0.48060000  1
  C  C213  1  0.63177000  0.17874000  0.98918000  1
  C  C214  1  0.59472000  0.20298000  0.57838000  1
  C  C215  1  0.73899000  0.04935000  0.53504000  1
  C  C216  1  0.81356000  0.97271000  0.51302000  1
  C  C217  1  0.74179000  0.01550000  0.56781000  1
  C  C218  1  0.56599000  0.06748000  0.64319000  1
  C  C219  1  0.82405000  0.35220000  0.62546000  1
  C  C220  1  0.82957000  0.36777000  0.68284000  1
  C  C221  1  0.69560000  0.06225000  0.62192000  1
  C  C222  1  0.56443000  0.09862000  0.67332000  1
  C  C223  1  0.89862000  0.32096000  0.59648000  1
  C  C224  1  0.91063000  0.33874000  0.65188000  1
  C  C225  1  0.68474000  0.18296000  0.70920000  1
  C  C226  1  0.69696000  0.11607000  0.68291000  1
  C  C227  1  0.83527000  0.05959000  0.63347000  1
  C  C228  1  0.83636000  0.08525000  0.66409000  1
  C  C229  1  0.06094000  0.28009000  0.59311000  1
  C  C230  1  0.07296000  0.29284000  0.64882000  1
  C  C231  1  0.80088000  0.20141000  0.81965000  1
  C  C232  1  0.10944000  0.32881000  0.53677000  1
  C  C233  1  0.14782000  0.26808000  0.61929000  1
  C  C234  1  0.10450000  0.36994000  0.47907000  1
  C  C235  1  0.15449000  0.29526000  0.50632000  1
  C  C236  1  0.99208000  0.12627000  0.86047000  1
  C  C237  1  0.86246000  0.12105000  0.84664000  1
  C  C238  1  0.14595000  0.33317000  0.44906000  1
  C  C239  1  0.22984000  0.14080000  0.56014000  1
  C  C240  1  0.24877000  0.18449000  0.50320000  1
  C  C241  1  0.03888000  0.05921000  0.88867000  1
  C  C242  1  0.29277000  0.10798000  0.53027000  1
  C  C243  1  0.24311000  0.22250000  0.44588000  1
  C  C244  1  0.78302000  0.04559000  0.86046000  1
  C  C245  1  0.29936000  0.15002000  0.47296000  1
  C  C246  1  0.28434000  0.18225000  0.41607000  1
  C  C247  1  0.39850000  0.00013000  0.52705000  1
  C  C248  1  0.95867000  0.98413000  0.90274000  1
  C  C249  1  0.83024000  0.97793000  0.88851000  1
  C  C250  1  0.40660000  0.04333000  0.46984000  1
  C  C251  1  0.45913000  0.96972000  0.49707000  1
  N  N252  1  0.00357000  0.91692000  0.93225000  1
  N  N253  1  0.39208000  0.07839000  0.41334000  1
  N  N254  1  0.00807000  0.61074000  0.08085000  1
  N  N255  1  0.34204000  0.83126000  0.06124000  1
  N  N256  1  0.73843000  0.67574000  0.41846000  1
  N  N257  1  0.33095000  0.68976000  0.56618000  1
  N  N258  1  0.45025000  0.81337000  0.89792000  1
  N  N259  1  0.56658000  0.27867000  0.09621000  1
  N  N260  1  0.64779000  0.26952000  0.42705000  1
  N  N261  1  0.79571000  0.37988000  0.93723000  1
  N  N262  1  0.67352000  0.09302000  0.58877000  1
  N  N263  1  0.13759000  0.24989000  0.56291000  1
  O  O264  1  0.57676000  0.91994000  0.43599000  1
  O  O265  1  0.98916000  0.07562000  0.95620000  1
  O  O266  1  0.10937000  0.44226000  0.05809000  1
  O  O267  1  0.67607000  0.78355000  0.29827000  1
  O  O268  1  0.43171000  0.87164000  0.28226000  1
  O  O269  1  0.88698000  0.77924000  0.10279000  1
  O  O270  1  0.90680000  0.58777000  0.22796000  1
  O  O271  1  0.57325000  0.68094000  0.24364000  1
  O  O272  1  0.30499000  0.02504000  0.05404000  1
  O  O273  1  0.75411000  0.54181000  0.29208000  1
  O  O274  1  0.47566000  0.58533000  0.19582000  1
  O  O275  1  0.19815000  0.76304000  0.30436000  1
  O  O276  1  0.51894000  0.64108000  0.31416000  1
  O  O277  1  0.24119000  0.70596000  0.21160000  1
  O  O278  1  0.78186000  0.46312000  0.22043000  1
  O  O279  1  0.51671000  0.68124000  0.39491000  1
  O  O280  1  0.05243000  0.70755000  0.27349000  1
  O  O281  1  0.37563000  0.57418000  0.26833000  1
  O  O282  1  0.10124000  0.72432000  0.54174000  1
  O  O283  1  0.52780000  0.37393000  0.23509000  1
  O  O284  1  0.44042000  0.00271000  0.89048000  1
  O  O285  1  0.28498000  0.45967000  0.21646000  1
  O  O286  1  0.57800000  0.45504000  0.10455000  1
  O  O287  1  0.96441000  0.65646000  0.44255000  1
  O  O288  1  0.34787000  0.64296000  0.06804000  1
  O  O289  1  0.50696000  0.45170000  0.43826000  1
  O  O290  1  0.81851000  0.55218000  0.94604000  1
  O  O291  1  0.56347000  0.64770000  0.59039000  1
  O  O292  1  0.21021000  0.62093000  0.71748000  1
  O  O293  1  0.78924000  0.08686000  0.41629000  1
  O  O294  1  0.18406000  0.51548000  0.81345000  1
  O  O295  1  0.37394000  0.63175000  0.76955000  1
  O  O296  1  0.46594000  0.62296000  0.90566000  1
  O  O297  1  0.53396000  0.10971000  0.08669000  1
  O  O298  1  0.34849000  0.46577000  0.69254000  1
  O  O299  1  0.37503000  0.40555000  0.75872000  1
  O  O300  1  0.48927000  0.51235000  0.81129000  1
  O  O301  1  0.53587000  0.27704000  0.59888000  1
  O  O302  1  0.71475000  0.23298000  0.92532000  1
  O  O303  1  0.35185000  0.33895000  0.82833000  1
  O  O304  1  0.68134000  0.42838000  0.68353000  1
  O  O305  1  0.66252000  0.39322000  0.75758000  1
  O  O306  1  0.55134000  0.25560000  0.71697000  1
  O  O307  1  0.91094000  0.35090000  0.70800000  1
  O  O308  1  0.81196000  0.90954000  0.57839000  1
  O  O309  1  0.68710000  0.29293000  0.82495000  1
  O  O310  1  0.04169000  0.43629000  0.54025000  1
  O  O311  1  0.80127000  0.15748000  0.72729000  1
  O  O312  1  0.82829000  0.16711000  0.79140000  1
  O  O313  1  0.25438000  0.06553000  0.58531000  1
  O  O314  1  0.21487000  0.24238000  0.39099000  1
  O  O315  1  0.06971000  0.75075000  0.90841000  1
