# generated using pymatgen
data_V4H25C52N(O5F)4
_symmetry_space_group_name_H-M   'P 1'
_cell_length_a   6.94604000
_cell_length_b   13.49006000
_cell_length_c   20.12825000
_cell_angle_alpha   75.95824000
_cell_angle_beta   89.83771000
_cell_angle_gamma   89.35612000
_symmetry_Int_Tables_number   1
_chemical_formula_structural   V4H25C52N(O5F)4
_chemical_formula_sum   'V4 H25 C52 N1 O20 F4'
_cell_volume   1829.59442211
_cell_formula_units_Z   1
loop_
 _symmetry_equiv_pos_site_id
 _symmetry_equiv_pos_as_xyz
  1  'x, y, z'
loop_
 _atom_site_type_symbol
 _atom_site_label
 _atom_site_symmetry_multiplicity
 _atom_site_fract_x
 _atom_site_fract_y
 _atom_site_fract_z
 _atom_site_occupancy
  V  V0  1  0.93535000  0.51200000  0.49757000  1
  V  V1  1  0.43596000  0.48800000  0.50243000  1
  V  V2  1  0.35180000  0.98802000  0.00243000  1
  V  V3  1  0.85122000  0.01222000  0.99764000  1
  H  H4  1  0.16571000  0.97912000  0.30960000  1
  H  H5  1  0.17309000  0.02413000  0.41821000  1
  H  H6  1  0.13428000  0.39312000  0.30408000  1
  H  H7  1  0.11938000  0.33985000  0.01264000  1
  H  H8  1  0.13096000  0.43479000  0.19811000  1
  H  H9  1  0.11870000  0.47491000  0.07527000  1
  H  H10  1  0.15365000  0.02516000  0.18633000  1
  H  H11  1  0.34668000  0.39860000  0.75179000  1
  H  H12  1  0.00296000  0.34368000  0.83019000  1
  H  H13  1  0.79329000  0.91364000  0.25190000  1
  H  H14  1  0.46362000  0.83049000  0.32880000  1
  H  H15  1  0.30949000  0.78121000  0.21091000  1
  H  H16  1  0.49370000  0.58730000  0.24829000  1
  H  H17  1  0.82337000  0.67045000  0.17144000  1
  H  H18  1  0.97753000  0.71990000  0.28934000  1
  H  H19  1  0.60223000  0.84242000  0.51494000  1
  H  H20  1  0.57617000  0.01706000  0.69122000  1
  H  H21  1  0.57681000  0.97130000  0.58200000  1
  H  H22  1  0.67511000  0.60550000  0.69685000  1
  H  H23  1  0.68357000  0.66107000  0.98804000  1
  H  H24  1  0.69088000  0.56496000  0.80286000  1
  H  H25  1  0.71022000  0.52614000  0.92563000  1
  H  H26  1  0.59237000  0.97206000  0.81442000  1
  H  H27  1  0.30983000  0.16974000  0.51920000  1
  H  H28  1  0.17278000  0.06743000  0.52194000  1
  C  C29  1  0.65181000  0.61902000  0.38307000  1
  C  C30  1  0.65307000  0.63899000  0.56363000  1
  C  C31  1  0.15944000  0.38168000  0.61692000  1
  C  C32  1  0.15749000  0.36075000  0.43651000  1
  C  C33  1  0.16457000  0.10460000  0.39251000  1
  C  C34  1  0.15219000  0.28171000  0.39794000  1
  C  C35  1  0.12634000  0.31904000  0.06810000  1
  C  C36  1  0.12548000  0.39560000  0.10341000  1
  C  C37  1  0.13229000  0.37100000  0.17472000  1
  C  C38  1  0.14042000  0.26782000  0.21294000  1
  C  C39  1  0.14305000  0.18965000  0.17624000  1
  C  C40  1  0.14598000  0.23963000  0.28616000  1
  C  C41  1  0.15607000  0.13447000  0.32072000  1
  C  C42  1  0.15846000  0.05948000  0.28355000  1
  C  C43  1  0.15168000  0.08640000  0.21255000  1
  C  C44  1  0.14246000  0.31209000  0.32645000  1
  C  C45  1  0.16453000  0.17769000  0.43151000  1
  C  C46  1  0.13559000  0.21644000  0.10370000  1
  C  C47  1  0.32066000  0.21890000  0.77030000  1
  C  C48  1  0.21883000  0.20032000  0.70678000  1
  C  C49  1  0.15087000  0.31253000  0.68746000  1
  C  C50  1  0.25424000  0.33223000  0.75115000  1
  C  C51  1  0.06734000  0.30189000  0.79423000  1
  C  C52  1  0.96674000  0.28252000  0.73006000  1
  C  C53  1  0.03482000  0.17040000  0.74923000  1
  C  C54  1  0.13649000  0.18888000  0.81294000  1
  C  C55  1  0.54513000  0.79456000  0.29310000  1
  C  C56  1  0.72524000  0.83976000  0.25134000  1
  C  C57  1  0.64128000  0.81154000  0.18778000  1
  C  C58  1  0.46076000  0.76719000  0.22873000  1
  C  C59  1  0.56174000  0.66117000  0.24888000  1
  C  C60  1  0.74187000  0.70634000  0.20716000  1
  C  C61  1  0.82624000  0.73374000  0.27152000  1
  C  C62  1  0.64572000  0.68930000  0.31246000  1
  C  C63  1  0.59858000  0.89186000  0.60852000  1
  C  C64  1  0.64134000  0.71625000  0.60322000  1
  C  C65  1  0.67329000  0.68117000  0.93266000  1
  C  C66  1  0.68865000  0.60471000  0.89746000  1
  C  C67  1  0.67723000  0.62852000  0.82622000  1
  C  C68  1  0.64969000  0.73075000  0.78800000  1
  C  C69  1  0.63293000  0.80873000  0.82457000  1
  C  C70  1  0.63868000  0.75827000  0.71488000  1
  C  C71  1  0.61094000  0.86268000  0.68027000  1
  C  C72  1  0.59540000  0.93737000  0.71733000  1
  C  C73  1  0.60554000  0.91104000  0.78826000  1
  C  C74  1  0.65418000  0.68598000  0.67462000  1
  C  C75  1  0.61315000  0.81892000  0.57025000  1
  C  C76  1  0.64529000  0.78281000  0.89698000  1
  C  C77  1  0.63377000  0.86084000  0.93639000  1
  C  C78  1  0.63528000  0.88131000  0.11702000  1
  C  C79  1  0.12995000  0.13866000  0.06405000  1
  C  C80  1  0.12777000  0.11871000  0.88318000  1
  N  N81  1  0.17578000  0.14707000  0.50497000  1
  O  O82  1  0.49322000  0.60006000  0.55005000  1
  O  O83  1  0.82016000  0.59711000  0.41059000  1
  O  O84  1  0.99543000  0.39994000  0.44995000  1
  O  O85  1  0.82262000  0.61216000  0.54711000  1
  O  O86  1  0.99790000  0.41510000  0.58744000  1
  O  O87  1  0.49075000  0.58490000  0.41256000  1
  O  O88  1  0.66243000  0.43533000  0.51307000  1
  O  O89  1  0.32791000  0.40289000  0.58941000  1
  O  O90  1  0.32546000  0.38784000  0.45289000  1
  O  O91  1  0.15901000  0.56467000  0.48693000  1
  O  O92  1  0.79642000  0.91492000  0.08739000  1
  O  O93  1  0.46429000  0.88781000  0.95288000  1
  O  O94  1  0.28927000  0.08495000  0.91257000  1
  O  O95  1  0.46699000  0.90285000  0.08940000  1
  O  O96  1  0.29199000  0.10009000  0.05007000  1
  O  O97  1  0.79370000  0.89978000  0.94990000  1
  O  O98  1  0.62483000  0.06458000  0.98690000  1
  O  O99  1  0.96197000  0.11233000  0.04716000  1
  O  O100  1  0.95927000  0.09730000  0.91064000  1
  O  O101  1  0.12807000  0.93543000  0.01310000  1
  F  F102  1  0.50465000  0.18510000  0.79089000  1
  F  F103  1  0.78246000  0.31513000  0.70900000  1
  F  F104  1  0.92169000  0.08738000  0.74782000  1
  F  F105  1  0.29625000  0.14795000  0.66178000  1
