# generated using pymatgen
data_Mg3H39C72N6O13
_symmetry_space_group_name_H-M   'P 1'
_cell_length_a   16.79857000
_cell_length_b   32.29224305
_cell_length_c   32.34958000
_cell_angle_alpha   119.94114050
_cell_angle_beta   90.00000000
_cell_angle_gamma   90.00000000
_symmetry_Int_Tables_number   1
_chemical_formula_structural   Mg3H39C72N6O13
_chemical_formula_sum   'Mg6 H78 C144 N12 O26'
_cell_volume   15206.42351884
_cell_formula_units_Z   2
loop_
 _symmetry_equiv_pos_site_id
 _symmetry_equiv_pos_as_xyz
  1  'x, y, z'
loop_
 _atom_site_type_symbol
 _atom_site_label
 _atom_site_symmetry_multiplicity
 _atom_site_fract_x
 _atom_site_fract_y
 _atom_site_fract_z
 _atom_site_occupancy
  Mg  Mg0  1  0.50000000  0.29945000  0.59890000  1
  Mg  Mg1  1  0.50000000  0.29938000  0.70062000  1
  Mg  Mg2  1  0.50000000  0.40124000  0.70062000  1
  Mg  Mg3  1  0.50000000  0.70055000  0.40110000  1
  Mg  Mg4  1  0.50000000  0.70062000  0.29938000  1
  Mg  Mg5  1  0.50000000  0.59876000  0.29938000  1
  H  H6  1  0.68025000  0.33714000  0.53054000  1
  H  H7  1  0.78576000  0.36883000  0.49837000  1
  H  H8  1  0.68043000  0.19329000  0.66277000  1
  H  H9  1  0.78595000  0.12943000  0.63118000  1
  H  H10  1  0.68045000  0.46961000  0.80670000  1
  H  H11  1  0.78576000  0.50180000  0.87049000  1
  H  H12  1  0.68025000  0.66285000  0.46945000  1
  H  H13  1  0.78576000  0.63116000  0.50162000  1
  H  H14  1  0.68043000  0.80671000  0.33723000  1
  H  H15  1  0.78595000  0.87057000  0.36882000  1
  H  H16  1  0.68045000  0.53039000  0.19330000  1
  H  H17  1  0.78576000  0.49820000  0.12951000  1
  H  H18  1  0.31955000  0.66291000  0.19330000  1
  H  H19  1  0.21424000  0.63131000  0.12951000  1
  H  H20  1  0.31975000  0.80660000  0.46946000  1
  H  H21  1  0.21424000  0.87046000  0.50163000  1
  H  H22  1  0.31957000  0.53052000  0.33723000  1
  H  H23  1  0.21405000  0.49825000  0.36882000  1
  H  H24  1  0.31955000  0.33709000  0.80670000  1
  H  H25  1  0.21424000  0.36869000  0.87049000  1
  H  H26  1  0.31975000  0.19340000  0.53054000  1
  H  H27  1  0.21424000  0.12954000  0.49837000  1
  H  H28  1  0.31957000  0.46948000  0.66277000  1
  H  H29  1  0.21405000  0.50175000  0.63118000  1
  H  H30  1  0.31975000  0.66285000  0.46945000  1
  H  H31  1  0.21424000  0.63116000  0.50162000  1
  H  H32  1  0.31957000  0.80671000  0.33723000  1
  H  H33  1  0.21405000  0.87057000  0.36882000  1
  H  H34  1  0.31955000  0.53039000  0.19330000  1
  H  H35  1  0.21424000  0.49820000  0.12951000  1
  H  H36  1  0.31975000  0.33714000  0.53054000  1
  H  H37  1  0.21424000  0.36883000  0.49837000  1
  H  H38  1  0.31957000  0.19329000  0.66277000  1
  H  H39  1  0.21405000  0.12943000  0.63118000  1
  H  H40  1  0.31955000  0.46961000  0.80670000  1
  H  H41  1  0.21424000  0.50180000  0.87049000  1
  H  H42  1  0.68045000  0.33709000  0.80670000  1
  H  H43  1  0.78576000  0.36869000  0.87049000  1
  H  H44  1  0.68025000  0.19340000  0.53054000  1
  H  H45  1  0.78576000  0.12954000  0.49837000  1
  H  H46  1  0.68043000  0.46948000  0.66277000  1
  H  H47  1  0.78595000  0.50175000  0.63118000  1
  H  H48  1  0.68045000  0.66291000  0.19330000  1
  H  H49  1  0.78576000  0.63131000  0.12951000  1
  H  H50  1  0.68025000  0.80660000  0.46946000  1
  H  H51  1  0.78576000  0.87046000  0.50163000  1
  H  H52  1  0.68043000  0.53052000  0.33723000  1
  H  H53  1  0.78595000  0.49825000  0.36882000  1
  H  H54  1  0.91913000  0.40829000  0.59170000  1
  H  H55  1  0.69715000  0.47571000  0.52431000  1
  H  H56  1  0.91913000  0.18341000  0.59170000  1
  H  H57  1  0.69715000  0.04860000  0.52431000  1
  H  H58  1  0.91917000  0.40838000  0.81676000  1
  H  H59  1  0.69719000  0.47575000  0.95150000  1
  H  H60  1  0.91913000  0.59170000  0.40829000  1
  H  H61  1  0.69715000  0.52429000  0.47569000  1
  H  H62  1  0.91913000  0.81659000  0.40830000  1
  H  H63  1  0.69715000  0.95140000  0.47569000  1
  H  H64  1  0.91917000  0.59162000  0.18324000  1
  H  H65  1  0.69719000  0.52425000  0.04850000  1
  H  H66  1  0.08083000  0.59162000  0.18324000  1
  H  H67  1  0.30281000  0.52425000  0.04850000  1
  H  H68  1  0.08087000  0.81659000  0.40830000  1
  H  H69  1  0.30285000  0.95140000  0.47569000  1
  H  H70  1  0.08087000  0.59170000  0.40829000  1
  H  H71  1  0.30285000  0.52429000  0.47569000  1
  H  H72  1  0.08083000  0.40838000  0.81676000  1
  H  H73  1  0.30281000  0.47575000  0.95150000  1
  H  H74  1  0.08087000  0.18341000  0.59170000  1
  H  H75  1  0.30285000  0.04860000  0.52431000  1
  H  H76  1  0.08087000  0.40829000  0.59170000  1
  H  H77  1  0.30285000  0.47571000  0.52431000  1
  H  H78  1  0.93669000  0.50000000  0.50000000  1
  H  H79  1  0.93669000  1.00000000  0.50000000  1
  H  H80  1  0.93673000  0.50000000  0.00000000  1
  H  H81  1  0.06326000  0.50000000  0.00000000  1
  H  H82  1  0.06331000  1.00000000  0.50000000  1
  H  H83  1  0.06331000  0.50000000  0.50000000  1
  C  C84  1  0.70366000  0.37317000  0.55199000  1
  C  C85  1  0.76225000  0.39080000  0.53425000  1
  C  C86  1  0.70378000  0.17875000  0.62680000  1
  C  C87  1  0.76237000  0.14338000  0.60921000  1
  C  C88  1  0.70375000  0.44810000  0.82125000  1
  C  C89  1  0.76225000  0.46586000  0.85663000  1
  C  C90  1  0.70366000  0.62683000  0.44802000  1
  C  C91  1  0.76225000  0.60920000  0.46575000  1
  C  C92  1  0.70378000  0.82125000  0.37320000  1
  C  C93  1  0.76237000  0.85661000  0.39078000  1
  C  C94  1  0.70375000  0.55190000  0.17875000  1
  C  C95  1  0.76225000  0.53414000  0.14338000  1
  C  C96  1  0.29625000  0.62685000  0.17875000  1
  C  C97  1  0.23775000  0.60923000  0.14337000  1
  C  C98  1  0.29634000  0.82118000  0.44801000  1
  C  C99  1  0.23775000  0.85655000  0.46575000  1
  C  C100  1  0.29622000  0.55195000  0.37320000  1
  C  C101  1  0.23763000  0.53417000  0.39079000  1
  C  C102  1  0.29625000  0.37315000  0.82125000  1
  C  C103  1  0.23775000  0.39076000  0.85662000  1
  C  C104  1  0.29634000  0.17882000  0.55199000  1
  C  C105  1  0.23775000  0.14345000  0.53425000  1
  C  C106  1  0.29622000  0.44805000  0.62680000  1
  C  C107  1  0.23763000  0.46583000  0.60921000  1
  C  C108  1  0.29633000  0.62683000  0.44802000  1
  C  C109  1  0.23775000  0.60920000  0.46575000  1
  C  C110  1  0.29622000  0.82125000  0.37320000  1
  C  C111  1  0.23763000  0.85661000  0.39078000  1
  C  C112  1  0.29625000  0.55190000  0.17875000  1
  C  C113  1  0.23775000  0.53414000  0.14338000  1
  C  C114  1  0.29633000  0.37317000  0.55199000  1
  C  C115  1  0.23775000  0.39080000  0.53425000  1
  C  C116  1  0.29622000  0.17875000  0.62680000  1
  C  C117  1  0.23763000  0.14338000  0.60921000  1
  C  C118  1  0.29625000  0.44810000  0.82125000  1
  C  C119  1  0.23775000  0.46586000  0.85663000  1
  C  C120  1  0.70375000  0.37315000  0.82125000  1
  C  C121  1  0.76225000  0.39076000  0.85662000  1
  C  C122  1  0.70366000  0.17882000  0.55199000  1
  C  C123  1  0.76225000  0.14345000  0.53425000  1
  C  C124  1  0.70378000  0.44805000  0.62680000  1
  C  C125  1  0.76237000  0.46583000  0.60921000  1
  C  C126  1  0.70375000  0.62685000  0.17875000  1
  C  C127  1  0.76225000  0.60923000  0.14337000  1
  C  C128  1  0.70366000  0.82118000  0.44801000  1
  C  C129  1  0.76225000  0.85655000  0.46575000  1
  C  C130  1  0.70378000  0.55195000  0.37320000  1
  C  C131  1  0.76237000  0.53417000  0.39079000  1
  C  C132  1  0.82887000  0.47984000  0.52020000  1
  C  C133  1  0.85517000  0.45595000  0.54411000  1
  C  C134  1  0.61062000  0.38244000  0.61752000  1
  C  C135  1  0.93521000  0.44842000  0.55161000  1
  C  C136  1  0.67414000  0.40162000  0.59837000  1
  C  C137  1  0.79194000  0.43725000  0.56281000  1
  C  C138  1  0.95946000  0.42341000  0.57661000  1
  C  C139  1  0.74776000  0.48769000  0.51232000  1
  C  C140  1  0.82887000  0.04036000  0.52020000  1
  C  C141  1  0.85517000  0.08816000  0.54411000  1
  C  C142  1  0.61062000  0.23508000  0.61753000  1
  C  C143  1  0.93521000  0.10319000  0.55161000  1
  C  C144  1  0.67414000  0.19675000  0.59837000  1
  C  C145  1  0.79194000  0.12556000  0.56281000  1
  C  C146  1  0.95946000  0.15320000  0.57661000  1
  C  C147  1  0.74776000  0.02463000  0.51232000  1
  C  C148  1  0.82891000  0.47984000  0.95968000  1
  C  C149  1  0.85513000  0.45596000  0.91192000  1
  C  C150  1  0.61069000  0.38246000  0.76492000  1
  C  C151  1  0.93518000  0.44844000  0.89688000  1
  C  C152  1  0.67417000  0.40163000  0.80326000  1
  C  C153  1  0.79185000  0.43726000  0.87452000  1
  C  C154  1  0.95946000  0.42347000  0.84694000  1
  C  C155  1  0.74782000  0.48770000  0.97541000  1
  C  C156  1  0.82887000  0.52016000  0.47980000  1
  C  C157  1  0.85517000  0.54405000  0.45589000  1
  C  C158  1  0.61062000  0.61755000  0.38247000  1
  C  C159  1  0.93521000  0.55158000  0.44839000  1
  C  C160  1  0.67414000  0.59838000  0.40163000  1
  C  C161  1  0.79194000  0.56275000  0.43719000  1
  C  C162  1  0.95946000  0.57659000  0.42339000  1
  C  C163  1  0.74776000  0.51231000  0.48768000  1
  C  C164  1  0.82887000  0.95964000  0.47980000  1
  C  C165  1  0.85517000  0.91184000  0.45589000  1
  C  C166  1  0.61062000  0.76491000  0.38247000  1
  C  C167  1  0.93521000  0.89681000  0.44839000  1
  C  C168  1  0.67414000  0.80325000  0.40163000  1
  C  C169  1  0.79194000  0.87443000  0.43718000  1
  C  C170  1  0.95946000  0.84680000  0.42339000  1
  C  C171  1  0.74776000  0.97537000  0.48768000  1
  C  C172  1  0.82891000  0.52016000  0.04032000  1
  C  C173  1  0.85513000  0.54404000  0.08808000  1
  C  C174  1  0.61069000  0.61753000  0.23507000  1
  C  C175  1  0.93518000  0.55156000  0.10312000  1
  C  C176  1  0.67417000  0.59837000  0.19674000  1
  C  C177  1  0.79185000  0.56273000  0.12547000  1
  C  C178  1  0.95946000  0.57652000  0.15305000  1
  C  C179  1  0.74782000  0.51229000  0.02459000  1
  C  C180  1  0.17109000  0.52016000  0.04032000  1
  C  C181  1  0.14487000  0.54404000  0.08808000  1
  C  C182  1  0.38931000  0.61753000  0.23507000  1
  C  C183  1  0.06481000  0.55156000  0.10312000  1
  C  C184  1  0.32583000  0.59837000  0.19674000  1
  C  C185  1  0.20814000  0.56273000  0.12547000  1
  C  C186  1  0.04054000  0.57652000  0.15305000  1
  C  C187  1  0.25218000  0.51229000  0.02459000  1
  C  C188  1  0.17113000  0.95964000  0.47980000  1
  C  C189  1  0.14482000  0.91184000  0.45589000  1
  C  C190  1  0.38938000  0.76491000  0.38247000  1
  C  C191  1  0.06479000  0.89681000  0.44839000  1
  C  C192  1  0.32586000  0.80325000  0.40163000  1
  C  C193  1  0.20806000  0.87443000  0.43718000  1
  C  C194  1  0.04054000  0.84680000  0.42339000  1
  C  C195  1  0.25224000  0.97537000  0.48768000  1
  C  C196  1  0.17113000  0.52016000  0.47980000  1
  C  C197  1  0.14482000  0.54405000  0.45589000  1
  C  C198  1  0.38938000  0.61755000  0.38247000  1
  C  C199  1  0.06479000  0.55158000  0.44839000  1
  C  C200  1  0.32586000  0.59838000  0.40163000  1
  C  C201  1  0.20806000  0.56275000  0.43719000  1
  C  C202  1  0.04054000  0.57659000  0.42339000  1
  C  C203  1  0.25224000  0.51231000  0.48768000  1
  C  C204  1  0.17109000  0.47984000  0.95968000  1
  C  C205  1  0.14487000  0.45596000  0.91192000  1
  C  C206  1  0.38931000  0.38246000  0.76492000  1
  C  C207  1  0.06481000  0.44844000  0.89688000  1
  C  C208  1  0.32583000  0.40163000  0.80326000  1
  C  C209  1  0.20814000  0.43726000  0.87452000  1
  C  C210  1  0.04054000  0.42347000  0.84694000  1
  C  C211  1  0.25218000  0.48770000  0.97541000  1
  C  C212  1  0.17113000  0.04036000  0.52020000  1
  C  C213  1  0.14482000  0.08816000  0.54411000  1
  C  C214  1  0.38938000  0.23508000  0.61753000  1
  C  C215  1  0.06479000  0.10319000  0.55161000  1
  C  C216  1  0.32586000  0.19675000  0.59837000  1
  C  C217  1  0.20806000  0.12556000  0.56281000  1
  C  C218  1  0.04054000  0.15320000  0.57661000  1
  C  C219  1  0.25224000  0.02463000  0.51232000  1
  C  C220  1  0.17113000  0.47984000  0.52020000  1
  C  C221  1  0.14482000  0.45595000  0.54411000  1
  C  C222  1  0.38938000  0.38244000  0.61752000  1
  C  C223  1  0.06479000  0.44842000  0.55161000  1
  C  C224  1  0.32586000  0.40162000  0.59837000  1
  C  C225  1  0.20806000  0.43725000  0.56281000  1
  C  C226  1  0.04054000  0.42341000  0.57661000  1
  C  C227  1  0.25224000  0.48769000  0.51232000  1
  N  N228  1  0.87592000  0.50000000  0.50000000  1
  N  N229  1  0.87592000  1.00000000  0.50000000  1
  N  N230  1  0.87597000  0.50000000  0.00000000  1
  N  N231  1  0.12403000  0.50000000  0.00000000  1
  N  N232  1  0.12408000  1.00000000  0.50000000  1
  N  N233  1  0.12408000  0.50000000  0.50000000  1
  N  N234  1  0.00000000  0.46343000  0.53660000  1
  N  N235  1  1.00000000  0.07317000  0.53660000  1
  N  N236  1  0.00000000  0.46342000  0.92684000  1
  N  N237  1  0.00000000  0.53657000  0.46340000  1
  N  N238  1  0.00000000  0.92683000  0.46340000  1
  N  N239  1  0.00000000  0.53658000  0.07316000  1
  O  O240  1  0.58689000  0.34000000  0.58933000  1
  O  O241  1  0.58690000  0.24925000  0.65991000  1
  O  O242  1  0.58696000  0.41072000  0.75071000  1
  O  O243  1  0.58689000  0.65999000  0.41066000  1
  O  O244  1  0.58690000  0.75075000  0.34009000  1
  O  O245  1  0.58696000  0.58927000  0.24928000  1
  O  O246  1  0.41304000  0.66001000  0.24929000  1
  O  O247  1  0.41311000  0.75066000  0.41066000  1
  O  O248  1  0.41310000  0.58933000  0.34008000  1
  O  O249  1  0.41304000  0.33999000  0.75071000  1
  O  O250  1  0.41311000  0.24933000  0.58933000  1
  O  O251  1  0.41310000  0.41066000  0.65991000  1
  O  O252  1  0.41311000  0.65999000  0.41066000  1
  O  O253  1  0.41310000  0.75075000  0.34009000  1
  O  O254  1  0.41304000  0.58927000  0.24928000  1
  O  O255  1  0.41311000  0.34000000  0.58933000  1
  O  O256  1  0.41310000  0.24925000  0.65991000  1
  O  O257  1  0.41304000  0.41072000  0.75071000  1
  O  O258  1  0.58696000  0.33999000  0.75071000  1
  O  O259  1  0.58689000  0.24933000  0.58933000  1
  O  O260  1  0.58690000  0.41066000  0.65991000  1
  O  O261  1  0.58696000  0.66001000  0.24929000  1
  O  O262  1  0.58689000  0.75066000  0.41066000  1
  O  O263  1  0.58690000  0.58933000  0.34008000  1
  O  O264  1  0.50000000  0.33333333  0.66666667  1
  O  O265  1  0.50000000  0.66666667  0.33333333  1
