# generated using pymatgen
data_H35(C23N2)2
_symmetry_space_group_name_H-M   'P 1'
_cell_length_a   12.24943333
_cell_length_b   65.62880000
_cell_length_c   65.62880000
_cell_angle_alpha   60.00000000
_cell_angle_beta   89.99610000
_cell_angle_gamma   89.99220000
_symmetry_Int_Tables_number   1
_chemical_formula_structural   H35(C23N2)2
_chemical_formula_sum   'H210 C276 N24'
_cell_volume   45691.51443670
_cell_formula_units_Z   6
loop_
 _symmetry_equiv_pos_site_id
 _symmetry_equiv_pos_as_xyz
  1  'x, y, z'
loop_
 _atom_site_type_symbol
 _atom_site_label
 _atom_site_symmetry_multiplicity
 _atom_site_fract_x
 _atom_site_fract_y
 _atom_site_fract_z
 _atom_site_occupancy
  C  1  1  0.03107700  0.01662033  0.47427333  1
  C  2  1  0.02464400  0.04085733  0.46167767  1
  C  3  1  0.03274400  0.04919267  0.47748833  1
  C  5  1  0.04081100  0.00957733  0.49811467  1
  C  6  1  0.04860700  0.98587100  0.51673167  1
  C  7  1  0.04935500  0.97869200  0.54103533  1
  C  9  1  0.04242200  0.97962900  0.57464167  1
  C  10  1  0.05018800  0.95611000  0.58038333  1
  C  11  1  0.05473700  0.95553500  0.55967067  1
  C  12  1  0.03524800  0.98793800  0.59084967  1
  C  13  1  0.03384700  0.01206867  0.58451900  1
  C  15  1  0.03930000  0.05170433  0.56388000  1
  C  16  1  0.02977300  0.04463467  0.58773167  1
  C  17  1  0.02496200  0.02038367  0.60033600  1
  C  18  1  0.04574900  0.07543267  0.54525833  1
  C  19  1  0.04624700  0.08261200  0.52095600  1
  C  21  1  0.03923200  0.08165133  0.48736367  1
  C  22  1  0.04540700  0.10519300  0.48161233  1
  C  23  1  0.05004900  0.10578267  0.50231633  1
  C  24  1  0.03242400  0.07332167  0.47116667  1
  C  25  1  0.01918400  0.09048167  0.44695667  1
  C  26  1  0.91665000  0.10137333  0.43874067  1
  C  27  1  0.90339600  0.11915433  0.41519267  1
  C  28  1  0.99179300  0.12629033  0.39920100  1
  C  29  1  0.09366500  0.11490967  0.40733600  1
  C  30  1  0.10756400  0.09734167  0.43103000  1
  C  31  1  0.97813400  0.14495967  0.37569133  1
  C  32  1  0.00188900  0.14192167  0.35627733  1
  C  33  1  0.97997100  0.16000867  0.33313000  1
  C  34  1  0.93725100  0.18177033  0.32882567  1
  C  35  1  0.91480900  0.18492433  0.34820500  1
  C  36  1  0.93506200  0.16678167  0.37130300  1
  C  37  1  0.05317600  0.09338133  0.55134367  1
  C  38  1  0.95862000  0.10255200  0.55616367  1
  C  39  1  0.96729300  0.12040033  0.56201967  1
  C  40  1  0.07033000  0.12971767  0.56287700  1
  C  41  1  0.16458200  0.12039567  0.55800533  1
  C  42  1  0.15629300  0.10239567  0.55240267  1
  C  43  1  0.07956900  0.14813067  0.56830333  1
  C  44  1  0.02600400  0.14675967  0.58806600  1
  C  45  1  0.03820100  0.16469867  0.59371900  1
  C  46  1  0.10381700  0.18459067  0.57960933  1
  C  47  1  0.15588500  0.18618567  0.55970867  1
  C  48  1  0.14432000  0.16819667  0.55416800  1
  C  49  1  0.02318200  0.97075300  0.61508867  1
  C  50  1  0.11170700  0.96438800  0.63092667  1
  C  51  1  0.09873500  0.94698900  0.65471233  1
  C  52  1  0.99769400  0.93528300  0.66304067  1
  C  53  1  0.90920400  0.94187733  0.64711900  1
  C  54  1  0.92149500  0.95949600  0.62347633  1
  C  55  1  0.98479600  0.91691833  0.68671900  1
  C  56  1  0.94318600  0.89482500  0.69161733  1
  C  57  1  0.92344200  0.87699500  0.71488400  1
  C  58  1  0.94478600  0.88076533  0.73391800  1
  C  59  1  0.98611100  0.90279400  0.72910567  1
  C  60  1  0.00763600  0.92055633  0.70579633  1
  C  61  1  0.05705600  0.96793100  0.51065400  1
  C  62  1  0.16068800  0.95921600  0.50941233  1
  C  63  1  0.96294600  0.95832600  0.50622967  1
  C  64  1  0.97254100  0.94030800  0.50063333  1
  C  65  1  0.07610200  0.93125300  0.49964667  1
  C  66  1  0.16991600  0.94105000  0.50406633  1
  C  67  1  0.08621400  0.91254600  0.49466833  1
  C  68  1  0.15239100  0.89277433  0.50894233  1
  C  69  1  0.16444900  0.87444400  0.50390967  1
  C  70  1  0.11147000  0.87539500  0.48438767  1
  C  71  1  0.04447100  0.89499100  0.47014033  1
  C  72  1  0.03171900  0.91326500  0.47529733  1
  C  119  1  0.36483200  0.47185733  0.60568333  1
  C  120  1  0.35846600  0.45925967  0.59404333  1
  C  121  1  0.36619600  0.47507867  0.56989233  1
  C  123  1  0.37414600  0.49570667  0.58888267  1
  C  124  1  0.38178800  0.51432667  0.59397100  1
  C  125  1  0.38253900  0.53863267  0.57684900  1
  C  127  1  0.37565300  0.57224167  0.54230700  1
  C  128  1  0.38330700  0.57798067  0.56008733  1
  C  129  1  0.38782500  0.55726633  0.58137400  1
  C  130  1  0.36848900  0.58845167  0.51778933  1
  C  131  1  0.36711400  0.58212167  0.49998800  1
  C  133  1  0.37262800  0.56148667  0.48098733  1
  C  134  1  0.36327700  0.58534167  0.46420533  1
  C  135  1  0.35824400  0.59793933  0.47585700  1
  C  136  1  0.37902600  0.54286533  0.47587800  1
  C  137  1  0.37940500  0.51856133  0.49299867  1
  C  139  1  0.37234800  0.48496533  0.52755000  1
  C  140  1  0.37845300  0.47921733  0.50975600  1
  C  141  1  0.38302900  0.49992367  0.48846200  1
  C  142  1  0.36574200  0.46876433  0.55207967  1
  C  143  1  0.35250500  0.44455467  0.55912700  1
  C  144  1  0.24994100  0.43633233  0.55648067  1
  C  145  1  0.23670800  0.41278633  0.56224000  1
  C  146  1  0.32514800  0.39680133  0.57106567  1
  C  147  1  0.42707100  0.40494767  0.57426400  1
  C  148  1  0.44092700  0.42863533  0.56816400  1
  C  149  1  0.31152400  0.37329133  0.57590500  1
  C  150  1  0.33545600  0.35387933  0.59834500  1
  C  151  1  0.31353200  0.33073033  0.60341167  1
  C  152  1  0.27077000  0.32642500  0.58595967  1
  C  153  1  0.24825500  0.34580167  0.56342867  1
  C  154  1  0.26834700  0.36890200  0.55848233  1
  C  155  1  0.38645900  0.54895167  0.45184433  1
  C  156  1  0.29191200  0.55378167  0.43785267  1
  C  157  1  0.30059300  0.55963767  0.41414733  1
  C  158  1  0.40363500  0.56048833  0.40397333  1
  C  159  1  0.49787900  0.55560233  0.41816967  1
  C  160  1  0.48958000  0.55000167  0.44177200  1
  C  161  1  0.41288400  0.56591767  0.38013267  1
  C  162  1  0.35934600  0.58568567  0.36174233  1
  C  163  1  0.37155600  0.59134000  0.33814967  1
  C  164  1  0.43716200  0.57722733  0.33236567  1
  C  165  1  0.48918900  0.55731767  0.35067133  1
  C  166  1  0.47759700  0.55177367  0.37420200  1
  C  167  1  0.35650200  0.61269167  0.51073767  1
  C  168  1  0.44508200  0.62851433  0.50126967  1
  C  169  1  0.43220600  0.65229733  0.49490067  1
  C  170  1  0.33115700  0.66064967  0.49824867  1
  C  171  1  0.24261400  0.64474367  0.50756800  1
  C  172  1  0.25483500  0.62109900  0.51359400  1
  C  173  1  0.31832800  0.68433267  0.49292400  1
  C  174  1  0.27666900  0.68924967  0.51010400  1
  C  175  1  0.25697400  0.71252233  0.50465367  1
  C  176  1  0.27842900  0.73154967  0.48184833  1
  C  177  1  0.31982600  0.72671867  0.46464967  1
  C  178  1  0.34113400  0.70339933  0.47020067  1
  C  179  1  0.39027000  0.50824833  0.61798867  1
  C  180  1  0.49390500  0.50702433  0.62793300  1
  C  181  1  0.29618000  0.50379667  0.63203267  1
  C  182  1  0.30580000  0.49819167  0.65564967  1
  C  183  1  0.40936100  0.49722933  0.66567700  1
  C  184  1  0.50315600  0.50167467  0.65144567  1
  C  185  1  0.41949200  0.49225133  0.68936233  1
  C  186  1  0.48562200  0.50653400  0.69485333  1
  C  187  1  0.49766200  0.50150867  0.71821367  1
  C  188  1  0.44471400  0.48198467  0.73678967  1
  C  189  1  0.37776900  0.46772833  0.73144733  1
  C  190  1  0.36503300  0.47287900  0.70801900  1
  C  237  1  0.69790900  0.60329033  0.01901067  1
  C  238  1  0.69158700  0.59165033  0.04324833  1
  C  239  1  0.69944400  0.56750000  0.05158100  1
  C  241  1  0.70742300  0.58649100  0.01196333  1
  C  242  1  0.71510900  0.59158033  0.98825467  1
  C  243  1  0.71600800  0.57445633  0.98107433  1
  C  245  1  0.70910100  0.53991467  0.98200633  1
  C  246  1  0.71665200  0.55769800  0.95848500  1
  C  247  1  0.72129300  0.57898267  0.95791467  1
  C  248  1  0.70196700  0.51539800  0.99031333  1
  C  249  1  0.70064700  0.49759667  0.01444433  1
  C  251  1  0.70611500  0.47859567  0.05408067  1
  C  252  1  0.69675000  0.46181333  0.04700933  1
  C  253  1  0.69190000  0.47346300  0.02275733  1
  C  254  1  0.71238300  0.47348833  0.07781133  1
  C  255  1  0.71264100  0.49060767  0.08499567  1
  C  257  1  0.70566400  0.52516033  0.08403733  1
  C  258  1  0.71177100  0.50736733  0.10757933  1
  C  259  1  0.71637000  0.48607367  0.10816833  1
  C  260  1  0.69901800  0.54968867  0.07570967  1
  C  261  1  0.68580600  0.55674067  0.09286967  1
  C  262  1  0.58325900  0.55408833  0.10375067  1
  C  263  1  0.57005800  0.55983967  0.12154400  1
  C  264  1  0.65849500  0.56867567  0.12868900  1
  C  265  1  0.76038900  0.57188367  0.11732933  1
  C  266  1  0.77422800  0.56578533  0.09973933  1
  C  267  1  0.64488700  0.57350733  0.14736500  1
  C  268  1  0.66868300  0.59595433  0.14433167  1
  C  269  1  0.64667000  0.60101900  0.16241300  1
  C  270  1  0.60397800  0.58356033  0.18417567  1
  C  271  1  0.58160700  0.56102367  0.18733333  1
  C  272  1  0.60181600  0.55607433  0.16918467  1
  C  273  1  0.71980800  0.44945367  0.09576067  1
  C  274  1  0.62525600  0.43546733  0.10492733  1
  C  275  1  0.63393500  0.41176100  0.12277267  1
  C  276  1  0.73697100  0.40158533  0.13209733  1
  C  277  1  0.83122100  0.41577633  0.12278200  1
  C  278  1  0.82292700  0.43937733  0.10477833  1
  C  279  1  0.74621400  0.37774567  0.15051067  1
  C  280  1  0.69266400  0.35935500  0.14913767  1
  C  281  1  0.70489700  0.33576200  0.16707500  1
  C  282  1  0.77049100  0.32997967  0.18697033  1
  C  283  1  0.82250300  0.34828533  0.18857267  1
  C  284  1  0.81093400  0.37181467  0.17058300  1
  C  285  1  0.68996600  0.50834400  0.97312633  1
  C  286  1  0.77854100  0.49886833  0.96677433  1
  C  287  1  0.76565800  0.49249267  0.94936600  1
  C  288  1  0.66463300  0.49585767  0.93765733  1
  C  289  1  0.57608300  0.50517933  0.94424400  1
  C  290  1  0.58830500  0.51120867  0.96186067  1
  C  291  1  0.65183700  0.49054267  0.91929200  1
  C  292  1  0.61028400  0.50773733  0.89719000  1
  C  293  1  0.59062200  0.50229667  0.87936100  1
  C  294  1  0.61198200  0.47948933  0.88313400  1
  C  295  1  0.65317200  0.46227167  0.90517833  1
  C  296  1  0.67458600  0.46781867  0.92294500  1
  C  297  1  0.72358400  0.61559833  0.97031700  1
  C  298  1  0.82722100  0.62554433  0.96160233  1
  C  299  1  0.62949000  0.62964033  0.96071833  1
  C  300  1  0.63910700  0.65325833  0.94270933  1
  C  301  1  0.74267300  0.66328567  0.93364900  1
  C  302  1  0.83647100  0.64905533  0.94343833  1
  C  303  1  0.75281000  0.68697200  0.91494567  1
  C  304  1  0.81897200  0.69246567  0.89517367  1
  C  305  1  0.83102100  0.71582767  0.87684200  1
  C  306  1  0.77803500  0.73440233  0.87779000  1
  C  307  1  0.71106500  0.72905733  0.89738833  1
  C  308  1  0.69836500  0.70562900  0.91566800  1
  C  355  1  0.87385900  0.23441533  0.27464967  1
  C  356  1  0.76663800  0.24369833  0.27307967  1
  C  357  1  0.72555100  0.26103233  0.25063900  1
  C  358  1  0.79232100  0.26861867  0.23027100  1
  C  359  1  0.89613900  0.25815067  0.23162833  1
  C  360  1  0.93793200  0.24103800  0.25410300  1
  C  361  1  0.61431800  0.27201933  0.24764467  1
  C  365  1  0.69695000  0.23593867  0.29460333  1
  C  369  1  0.96316200  0.26510967  0.20988000  1
  C  373  1  0.04936800  0.23067167  0.25562200  1
  C  377  1  0.91901600  0.22021667  0.29668500  1
  C  379  1  0.75845800  0.28769233  0.20914267  1
  C  381  1  0.20732700  0.27225067  0.58750400  1
  C  382  1  0.10010800  0.27070333  0.57977867  1
  C  383  1  0.05895000  0.24827267  0.58487433  1
  C  384  1  0.12561700  0.22788867  0.59767333  1
  C  385  1  0.22941900  0.22922333  0.60679967  1
  C  386  1  0.27130500  0.25168867  0.60143833  1
  C  387  1  0.94773200  0.24530433  0.57686167  1
  C  391  1  0.03049700  0.29224067  0.56601800  1
  C  395  1  0.29633600  0.20745933  0.62160067  1
  C  399  1  0.38273600  0.25318267  0.61029833  1
  C  403  1  0.25261100  0.29427567  0.57966700  1
  C  405  1  0.09168900  0.20677067  0.59971567  1
  C  407  1  0.54052600  0.58509767  0.23681500  1
  C  408  1  0.43330900  0.57738533  0.24609667  1
  C  409  1  0.39220100  0.58249933  0.26342433  1
  C  410  1  0.45894600  0.59528733  0.27100400  1
  C  411  1  0.56276900  0.60439467  0.26054033  1
  C  412  1  0.60458700  0.59902433  0.24343500  1
  C  413  1  0.28097400  0.57450733  0.27441067  1
  C  417  1  0.36365400  0.56361700  0.23834033  1
  C  421  1  0.62977200  0.61918533  0.26749867  1
  C  425  1  0.71601500  0.60787067  0.23307033  1
  C  429  1  0.58571500  0.57725967  0.22261933  1
  C  431  1  0.42508700  0.59734133  0.29007900  1
  C  433  1  0.88195900  0.82883200  0.78876033  1
  C  434  1  0.77466400  0.81951533  0.79053467  1
  C  435  1  0.73341600  0.80257967  0.81312600  1
  C  436  1  0.80015100  0.79539767  0.83343167  1
  C  437  1  0.90409000  0.80591133  0.83183133  1
  C  438  1  0.94600100  0.82263867  0.80921533  1
  C  439  1  0.62205600  0.79159267  0.81635300  1
  C  443  1  0.70506900  0.82682000  0.76908167  1
  C  447  1  0.97110900  0.79939267  0.85348100  1
  C  451  1  0.05750700  0.83305600  0.80746367  1
  C  455  1  0.92723000  0.84263400  0.76665767  1
  C  457  1  0.76611600  0.77665133  0.85477200  1
  C  459  1  0.21562100  0.78638967  0.47894700  1
  C  460  1  0.10831600  0.78814967  0.48650067  1
  C  461  1  0.06700700  0.81073433  0.48085900  1
  C  462  1  0.13367400  0.83104800  0.46773333  1
  C  463  1  0.23761400  0.82946400  0.45880633  1
  C  464  1  0.27959000  0.80685567  0.46468333  1
  C  465  1  0.95564700  0.81394333  0.48863867  1
  C  469  1  0.03876700  0.76668933  0.50064167  1
  C  473  1  0.30455600  0.85112400  0.44366933  1
  C  477  1  0.39110600  0.80511967  0.45600500  1
  C  481  1  0.26096700  0.76429233  0.48724133  1
  C  483  1  0.09958100  0.85238300  0.46514933  1
  C  485  1  0.54889000  0.47655933  0.83122233  1
  C  486  1  0.44157800  0.48411033  0.82191300  1
  C  487  1  0.40027400  0.47846467  0.80497500  1
  C  488  1  0.46695000  0.46533367  0.79778967  1
  C  489  1  0.57090600  0.45641333  0.80829300  1
  C  490  1  0.61287700  0.46229733  0.82501800  1
  C  491  1  0.28889000  0.48623367  0.79399733  1
  C  495  1  0.37202500  0.49825633  0.82923067  1
  C  499  1  0.63787300  0.44128167  0.80176467  1
  C  503  1  0.72439900  0.45362133  0.83542833  1
  C  507  1  0.59422300  0.48486067  0.84501767  1
  C  509  1  0.43284400  0.46275233  0.77903867  1
  H  73  1  0.00480600  0.89619767  0.45587800  1
  H  74  1  0.98426100  0.92741600  0.46439667  1
  H  75  1  0.21298900  0.86039300  0.51461133  1
  H  76  1  0.19173000  0.89140100  0.52334033  1
  H  77  1  0.24628500  0.93518800  0.50320767  1
  H  78  1  0.23005100  0.96590800  0.51256467  1
  H  79  1  0.90281200  0.93341600  0.49789933  1
  H  80  1  0.88696400  0.96429600  0.50718167  1
  H  81  1  0.02751500  0.00608133  0.46694233  1
  H  82  1  0.01696200  0.05056933  0.44379500  1
  H  83  1  0.05203000  0.03021467  0.51331767  1
  H  84  1  0.05227800  0.03109833  0.54867067  1
  H  85  1  0.05976400  0.94051700  0.55866467  1
  H  86  1  0.05278400  0.94158900  0.59681833  1
  H  87  1  0.18628500  0.97224200  0.62519567  1
  H  88  1  0.16466700  0.94239800  0.66572733  1
  H  89  1  0.85607100  0.96382200  0.61235067  1
  H  90  1  0.83460100  0.93395500  0.65263333  1
  H  91  1  0.01783200  0.01065700  0.61822867  1
  H  92  1  0.02560400  0.05515767  0.59507433  1
  H  93  1  0.04695500  0.11972233  0.46517500  1
  H  94  1  0.05396400  0.12081367  0.50331833  1
  H  95  1  0.88299900  0.09633133  0.55539200  1
  H  96  1  0.89726100  0.12693167  0.56511033  1
  H  97  1  0.22597700  0.09599333  0.54900300  1
  H  98  1  0.24062700  0.12644067  0.55877867  1
  H  99  1  0.18303200  0.17002567  0.53951900  1
  H  100  1  0.20345700  0.20045800  0.54910500  1
  H  101  1  0.99930300  0.16301267  0.60826067  1
  H  102  1  0.97960400  0.13237700  0.59887933  1
  H  103  1  0.18278500  0.08978833  0.43665233  1
  H  104  1  0.15956900  0.11991967  0.39627900  1
  H  105  1  0.91658800  0.16956067  0.38493933  1
  H  106  1  0.88032800  0.20020433  0.34570633  1
  H  107  1  0.99429000  0.15709767  0.31942633  1
  H  108  1  0.03076100  0.12615067  0.35889733  1
  H  109  1  0.82827400  0.12685867  0.40982100  1
  H  110  1  0.85137300  0.09671833  0.44994467  1
  H  111  1  0.92539600  0.89161400  0.67823367  1
  H  112  1  0.88990200  0.86150800  0.71774767  1
  H  113  1  0.03524300  0.93654500  0.70280067  1
  H  114  1  0.99959900  0.90614467  0.74254767  1
  H  191  1  0.33810400  0.45346833  0.74450567  1
  H  192  1  0.31759800  0.46197367  0.70477333  1
  H  193  1  0.54615400  0.51221767  0.72155833  1
  H  194  1  0.52492500  0.52093533  0.68182500  1
  H  195  1  0.57952800  0.50082833  0.65815700  1
  H  196  1  0.56325300  0.51019367  0.61807900  1
  H  197  1  0.23608300  0.49545033  0.66528233  1
  H  198  1  0.22019400  0.50473600  0.62512033  1
  H  199  1  0.36178800  0.46451567  0.62355900  1
  H  200  1  0.35132300  0.44136733  0.60221933  1
  H  201  1  0.38426200  0.51093567  0.55302333  1
  H  202  1  0.38550200  0.54627200  0.51680367  1
  H  203  1  0.39278900  0.55625733  0.59740000  1
  H  204  1  0.38588300  0.59441367  0.55817633  1
  H  205  1  0.51964000  0.62277033  0.49915133  1
  H  206  1  0.49813600  0.66330833  0.48845200  1
  H  207  1  0.18937400  0.60998433  0.52039067  1
  H  208  1  0.16801300  0.65027367  0.50996333  1
  H  209  1  0.35131700  0.61583667  0.46768833  1
  H  210  1  0.35906400  0.59268567  0.44634000  1
  H  211  1  0.37996700  0.46278167  0.51166133  1
  H  212  1  0.38702500  0.50092667  0.47242933  1
  H  213  1  0.21629400  0.55302067  0.44484300  1
  H  214  1  0.23057200  0.56274233  0.40452267  1
  H  215  1  0.55925800  0.54659167  0.45157533  1
  H  216  1  0.57392400  0.55637233  0.41135133  1
  H  217  1  0.51632500  0.53712633  0.38702033  1
  H  218  1  0.53677500  0.54671633  0.34700067  1
  H  219  1  0.33268300  0.60588633  0.32529400  1
  H  220  1  0.31296100  0.59650133  0.36531267  1
  H  221  1  0.51616500  0.43426133  0.57007500  1
  H  222  1  0.49296800  0.39388767  0.58032033  1
  H  223  1  0.24981500  0.38253733  0.54206967  1
  H  224  1  0.21367800  0.34330067  0.55065967  1
  H  225  1  0.32787900  0.31702867  0.62002533  1
  H  226  1  0.36424100  0.35649833  0.61150167  1
  H  227  1  0.16156700  0.40740867  0.55993000  1
  H  228  1  0.18464500  0.44753367  0.54994767  1
  H  229  1  0.25878200  0.67587333  0.52669700  1
  H  230  1  0.22336500  0.71539467  0.51726667  1
  H  231  1  0.36897100  0.70039600  0.45722633  1
  H  232  1  0.33341000  0.74015367  0.44785800  1
  H  309  1  0.67136800  0.74211433  0.89858967  1
  H  310  1  0.65085000  0.70237867  0.92981167  1
  H  311  1  0.87950900  0.71917333  0.86278533  1
  H  312  1  0.85826700  0.67943833  0.89379567  1
  H  313  1  0.91284600  0.65576667  0.93757600  1
  H  314  1  0.89657500  0.61568867  0.96828733  1
  H  315  1  0.56939300  0.66289267  0.93581500  1
  H  316  1  0.55350300  0.62272733  0.96669000  1
  H  317  1  0.69453600  0.62116267  0.00847433  1
  H  318  1  0.68404700  0.59982233  0.05296200  1
  H  319  1  0.71804400  0.55063833  0.03259833  1
  H  320  1  0.71892600  0.51441400  0.03347833  1
  H  321  1  0.72602900  0.59501067  0.94289600  1
  H  322  1  0.71920000  0.55578833  0.94396233  1
  H  323  1  0.85310800  0.49675533  0.97463000  1
  H  324  1  0.83162000  0.48606233  0.94478900  1
  H  325  1  0.52284300  0.51800533  0.96618100  1
  H  326  1  0.50150000  0.50758633  0.93631300  1
  H  327  1  0.68462300  0.46529933  0.01303233  1
  H  328  1  0.69236600  0.44395133  0.05753133  1
  H  329  1  0.71328100  0.50927367  0.12210933  1
  H  330  1  0.72031700  0.47003967  0.12319833  1
  H  331  1  0.54963600  0.44246267  0.09870233  1
  H  332  1  0.56390200  0.40214267  0.12930533  1
  H  333  1  0.89261200  0.44917667  0.09837900  1
  H  334  1  0.90726500  0.40895367  0.12882800  1
  H  335  1  0.84962700  0.38463467  0.17241200  1
  H  336  1  0.87008000  0.34461567  0.20284500  1
  H  337  1  0.66603800  0.32290633  0.16538533  1
  H  338  1  0.64631500  0.36292467  0.13474900  1
  H  339  1  0.84945100  0.56770133  0.09219233  1
  H  340  1  0.82628700  0.57794567  0.12232433  1
  H  341  1  0.58334100  0.53966067  0.17196133  1
  H  342  1  0.54708900  0.54824767  0.20260833  1
  H  343  1  0.66091500  0.61763667  0.15949867  1
  H  344  1  0.69739100  0.60911667  0.12855200  1
  H  345  1  0.49494000  0.55751833  0.12924567  1
  H  346  1  0.51798200  0.54753633  0.09910167  1
  H  347  1  0.59242200  0.52433067  0.89397700  1
  H  348  1  0.55700400  0.51491233  0.86387767  1
  H  349  1  0.70217400  0.45482433  0.93893633  1
  H  350  1  0.66659300  0.44547167  0.90854267  1
  H  362  1  0.56468700  0.26505767  0.26343933  1
  H  363  1  0.56721300  0.26953500  0.23492633  1
  H  364  1  0.62301600  0.29085267  0.24105500  1
  H  366  1  0.73307400  0.22265967  0.31108400  1
  H  367  1  0.62110200  0.22832533  0.29269467  1
  H  368  1  0.67829100  0.25102367  0.29675067  1
  H  370  1  0.92402500  0.27764967  0.19341733  1
  H  371  1  0.98112100  0.24963633  0.20837600  1
  H  372  1  0.03969500  0.27308667  0.21084400  1
  H  374  1  0.07575300  0.21782867  0.27331633  1
  H  375  1  0.11064700  0.24459867  0.24860600  1
  H  376  1  0.05086000  0.22163933  0.24547867  1
  H  378  1  0.95174900  0.22796067  0.30496733  1
  H  380  1  0.71244900  0.28508167  0.19819667  1
  H  388  1  0.89819000  0.26111167  0.56801167  1
  H  389  1  0.90053400  0.23260233  0.59205600  1
  H  390  1  0.95644700  0.23870567  0.56462500  1
  H  392  1  0.06665100  0.30870900  0.56284000  1
  H  393  1  0.95461400  0.29033633  0.57553000  1
  H  394  1  0.01190000  0.29440667  0.54877700  1
  H  396  1  0.25711800  0.19100533  0.62552233  1
  H  397  1  0.31426700  0.20595567  0.63857767  1
  H  398  1  0.37287900  0.20840167  0.61266967  1
  H  400  1  0.40920900  0.27087100  0.60544633  1
  H  401  1  0.44399500  0.24614733  0.60339900  1
  H  402  1  0.38415900  0.24304267  0.62947467  1
  H  404  1  0.28488900  0.30258167  0.56359733  1
  H  406  1  0.04566800  0.19582567  0.61327167  1
  H  414  1  0.23136400  0.56567133  0.26745067  1
  H  415  1  0.23384700  0.58971233  0.27191967  1
  H  416  1  0.28967800  0.56226867  0.29324433  1
  H  418  1  0.39980100  0.56041067  0.22506600  1
  H  419  1  0.28780000  0.57313767  0.23072233  1
  H  420  1  0.34500300  0.54638633  0.25342767  1
  H  422  1  0.59061300  0.62311467  0.28003167  1
  H  423  1  0.64773900  0.63615933  0.25202333  1
  H  424  1  0.70630100  0.61024133  0.27548300  1
  H  426  1  0.74242500  0.60301433  0.22023233  1
  H  427  1  0.77729300  0.60096533  0.24699833  1
  H  428  1  0.71747700  0.62704667  0.22403233  1
  H  430  1  0.61848900  0.56123633  0.23036500  1
  H  432  1  0.37902200  0.61089300  0.28746933  1
  H  440  1  0.57246600  0.79825533  0.80058000  1
  H  441  1  0.57502200  0.79447267  0.82882600  1
  H  442  1  0.63054200  0.77268433  0.82335400  1
  H  444  1  0.74136800  0.83979000  0.75247333  1
  H  445  1  0.62932600  0.83464200  0.77072467  1
  H  446  1  0.68621000  0.81147833  0.76738633  1
  H  448  1  0.93189100  0.78713733  0.87004600  1
  H  449  1  0.98924000  0.81509133  0.85456833  1
  H  450  1  0.04755100  0.79125367  0.85274267  1
  H  452  1  0.08396900  0.84559700  0.78967467  1
  H  453  1  0.11869400  0.81911133  0.81475433  1
  H  454  1  0.05907500  0.84246300  0.81724167  1
  H  456  1  0.95985900  0.83457600  0.75867733  1
  H  458  1  0.71981200  0.77959633  0.86545700  1
  H  466  1  0.90611500  0.79816333  0.49775533  1
  H  467  1  0.90855600  0.82641100  0.47329233  1
  H  468  1  0.96412600  0.82094567  0.50054467  1
  H  470  1  0.07508900  0.75008767  0.50426033  1
  H  471  1  0.96301100  0.76833667  0.49118167  1
  H  472  1  0.01993100  0.76497567  0.51768833  1
  H  474  1  0.26528400  0.86768300  0.43936767  1
  H  475  1  0.32267100  0.85221700  0.42687933  1
  H  476  1  0.38100500  0.85039400  0.45253767  1
  H  478  1  0.41761900  0.78733467  0.46124500  1
  H  479  1  0.45226900  0.81241333  0.46265767  1
  H  480  1  0.39264500  0.81490267  0.43682033  1
  H  482  1  0.29333400  0.75629533  0.50330367  1
  H  484  1  0.05313200  0.86305200  0.45154167  1
  H  492  1  0.23934500  0.49534767  0.80066467  1
  H  493  1  0.24183200  0.47088433  0.79688067  1
  H  494  1  0.29733600  0.49814167  0.77508767  1
  H  496  1  0.40835600  0.50188267  0.84220500  1
  H  497  1  0.29628300  0.48879433  0.83705300  1
  H  498  1  0.35315700  0.51529867  0.81389467  1
  H  500  1  0.59860600  0.43697833  0.78950900  1
  H  501  1  0.65602100  0.42449267  0.81745933  1
  H  502  1  0.71430900  0.45015467  0.79362033  1
  H  504  1  0.75090300  0.45886400  0.84797067  1
  H  505  1  0.78556100  0.46027333  0.82148000  1
  H  506  1  0.72595900  0.43443633  0.84483167  1
  H  508  1  0.62682800  0.50090067  0.83694100  1
  H  510  1  0.38666900  0.44910567  0.78198733  1
  N  4  1  0.04170000  0.02974233  0.49904900  1
  N  8  1  0.04213000  0.99244600  0.55089567  1
  N  14  1  0.04158800  0.03154167  0.56294600  1
  N  20  1  0.03980400  0.06883667  0.51110867  1
  N  115  1  0.90892300  0.19772933  0.30702267  1
  N  116  1  0.12863500  0.85741800  0.48090633  1
  N  117  1  0.91676400  0.86513100  0.75585733  1
  N  118  1  0.12067600  0.20225167  0.58359533  1
  N  122  1  0.37496400  0.49664067  0.56778300  1
  N  126  1  0.37537500  0.54849667  0.55323367  1
  N  132  1  0.37486700  0.56054867  0.50208567  1
  N  138  1  0.37303700  0.50871033  0.51662233  1
  N  233  1  0.24257700  0.30461133  0.59181933  1
  N  234  1  0.46181300  0.47851700  0.75824467  1
  N  235  1  0.25051200  0.75349467  0.47554300  1
  N  236  1  0.45404100  0.58121533  0.31071867  1
  N  240  1  0.70831700  0.56539133  0.03212933  1
  N  244  1  0.70882300  0.55084167  0.99482567  1
  N  250  1  0.70838700  0.49969367  0.03391933  1
  N  256  1  0.70633800  0.51423233  0.07122067  1
  N  351  1  0.57561000  0.58940567  0.20013167  1
  N  352  1  0.79513000  0.75585700  0.85980533  1
  N  353  1  0.58385100  0.47317267  0.86751700  1
  N  354  1  0.78737400  0.30833200  0.20463133  1
