# generated using pymatgen
data_Co3H12C20(N8Cl3)2
_symmetry_space_group_name_H-M   'P 1'
_cell_length_a   6.75273000
_cell_length_b   13.61501000
_cell_length_c   13.62080000
_cell_angle_alpha   98.27093000
_cell_angle_beta   97.83228000
_cell_angle_gamma   97.75256000
_symmetry_Int_Tables_number   1
_chemical_formula_structural   Co3H12C20(N8Cl3)2
_chemical_formula_sum   'Co3 H12 C20 N16 Cl6'
_cell_volume   1212.34902298
_cell_formula_units_Z   1
loop_
 _symmetry_equiv_pos_site_id
 _symmetry_equiv_pos_as_xyz
  1  'x, y, z'
loop_
 _atom_site_type_symbol
 _atom_site_label
 _atom_site_symmetry_multiplicity
 _atom_site_fract_x
 _atom_site_fract_y
 _atom_site_fract_z
 _atom_site_occupancy
  Co  Co0  1  0.99899000  0.99821000  0.99819000  1
  Co  Co1  1  0.50092000  0.49906000  0.00111000  1
  Co  Co2  1  0.49922000  0.99942000  0.49867000  1
  H  H3  1  0.89999000  0.21910000  0.98956000  1
  H  H4  1  0.43617000  0.10073000  0.99081000  1
  H  H5  1  0.63209000  0.27464000  0.00046000  1
  H  H6  1  0.09897000  0.00587000  0.77920000  1
  H  H7  1  0.56348000  0.00764000  0.89715000  1
  H  H8  1  0.36892000  0.00125000  0.72335000  1
  H  H9  1  0.09834000  0.77920000  0.00498000  1
  H  H10  1  0.56341000  0.89752000  0.00831000  1
  H  H11  1  0.36979000  0.72391000  0.00289000  1
  H  H12  1  0.89979000  0.99107000  0.21835000  1
  H  H13  1  0.43619000  0.99105000  0.10103000  1
  H  H14  1  0.63047000  0.99839000  0.27505000  1
  C  C15  1  0.17130000  0.32641000  0.99558000  1
  C  C16  1  0.06321000  0.23074000  0.99132000  1
  C  C17  1  0.35989000  0.16574000  0.99275000  1
  C  C18  1  0.46804000  0.26130000  0.99754000  1
  C  C19  1  0.07730000  0.41730000  0.99774000  1
  C  C20  1  0.82909000  0.00400000  0.67189000  1
  C  C21  1  0.93648000  0.00643000  0.76740000  1
  C  C22  1  0.63997000  0.00640000  0.83226000  1
  C  C23  1  0.53262000  0.00326000  0.73682000  1
  C  C24  1  0.92312000  0.00225000  0.58109000  1
  C  C25  1  0.82969000  0.67227000  0.00526000  1
  C  C26  1  0.93640000  0.76769000  0.00684000  1
  C  C27  1  0.64017000  0.83273000  0.00744000  1
  C  C28  1  0.53340000  0.73731000  0.00482000  1
  C  C29  1  0.92408000  0.58152000  0.00347000  1
  C  C30  1  0.16980000  0.99465000  0.32602000  1
  C  C31  1  0.06251000  0.99128000  0.23030000  1
  C  C32  1  0.35939000  0.99212000  0.16580000  1
  C  C33  1  0.46664000  0.99590000  0.26139000  1
  C  C34  1  0.07574000  0.99674000  0.41681000  1
  N  N35  1  0.37440000  0.34158000  0.99879000  1
  N  N36  1  0.15737000  0.14968000  0.99059000  1
  N  N37  1  0.20530000  0.50409000  0.00122000  1
  N  N38  1  0.87803000  0.40979000  0.99749000  1
  N  N39  1  0.62641000  0.00215000  0.65666000  1
  N  N40  1  0.84208000  0.00713000  0.84832000  1
  N  N41  1  0.79488000  0.99942000  0.49436000  1
  N  N42  1  0.12236000  0.00259000  0.58847000  1
  N  N43  1  0.62715000  0.65712000  0.00391000  1
  N  N44  1  0.84211000  0.84866000  0.00760000  1
  N  N45  1  0.79610000  0.49474000  0.00044000  1
  N  N46  1  0.12347000  0.58906000  0.00409000  1
  N  N47  1  0.37267000  0.99706000  0.34147000  1
  N  N48  1  0.15706000  0.99053000  0.14945000  1
  N  N49  1  0.20406000  0.99985000  0.50355000  1
  N  N50  1  0.87660000  0.99653000  0.40945000  1
  Cl  Cl51  1  0.44401000  0.47388000  0.83516000  1
  Cl  Cl52  1  0.55153000  0.16538000  0.52474000  1
  Cl  Cl53  1  0.55306000  0.52526000  0.16685000  1
  Cl  Cl54  1  0.44742000  0.83365000  0.47321000  1
  Cl  Cl55  1  0.23079000  0.91686000  0.91687000  1
  Cl  Cl56  1  0.77030000  0.08163000  0.08082000  1
