# generated using pymatgen
data_LaP2H13C6(NO3)2
_symmetry_space_group_name_H-M   'P 1'
_cell_length_a   5.86590000
_cell_length_b   10.10975000
_cell_length_c   11.37837000
_cell_angle_alpha   84.62573000
_cell_angle_beta   89.78800000
_cell_angle_gamma   81.95852000
_symmetry_Int_Tables_number   1
_chemical_formula_structural   LaP2H13C6(NO3)2
_chemical_formula_sum   'La2 P4 H26 C12 N4 O12'
_cell_volume   665.16674568
_cell_formula_units_Z   2
loop_
 _symmetry_equiv_pos_site_id
 _symmetry_equiv_pos_as_xyz
  1  'x, y, z'
loop_
 _atom_site_type_symbol
 _atom_site_label
 _atom_site_symmetry_multiplicity
 _atom_site_fract_x
 _atom_site_fract_y
 _atom_site_fract_z
 _atom_site_occupancy
  La  La1  1  0.21503000  0.14679000  0.46922000  1.0
  La  La2  1  0.78497000  0.85321000  0.53078000  1.0
  P  P1  1  0.71901000  0.17396000  0.66591000  1.0
  P  P2  1  0.66258000  0.16400000  0.31240000  1.0
  P  P3  1  0.28098000  0.82604000  0.33409000  1.0
  P  P4  1  0.33741000  0.83600000  0.68760000  1.0
  H  H1  1  0.49056000  0.97037000  0.16877000  1.0
  H  H2  1  0.02778000  0.27395000  0.74356000  1.0
  H  H3  1  0.77066000  0.39003000  0.73234000  1.0
  H  H4  1  0.66542000  0.38942000  0.47602000  1.0
  H  H5  1  0.68804000  0.52978000  0.55700000  1.0
  H  H6  1  0.03096000  0.54646000  0.66141000  1.0
  H  H7  1  0.27084000  0.41656000  0.65922000  1.0
  H  H8  1  0.91603000  0.01829000  0.20424000  1.0
  H  H9  1  0.83076000  0.17302000  0.11691000  1.0
  H  H10  1  0.83199000  0.98531000  0.97093000  1.0
  H  H11  1  0.83457000  0.85490000  0.08953000  1.0
  H  H12  1  0.35279000  0.20056000  0.09809000  1.0
  H  H13  1  0.54772000  0.19105000  0.97578000  1.0
  H  H14  1  0.50943000  0.02963000  0.83124000  1.0
  H  H15  1  0.97221000  0.72605000  0.25644000  1.0
  H  H16  1  0.22933000  0.60997000  0.26767000  1.0
  H  H17  1  0.33457000  0.61058000  0.52399000  1.0
  H  H18  1  0.31195000  0.47023000  0.44300000  1.0
  H  H19  1  0.96903000  0.45355000  0.33859000  1.0
  H  H20  1  0.72915000  0.58345000  0.34079000  1.0
  H  H21  1  0.08397000  0.98171000  0.79576000  1.0
  H  H22  1  0.16923000  0.82698000  0.88310000  1.0
  H  H23  1  0.16800000  0.01470000  0.02907000  1.0
  H  H24  1  0.16542000  0.14510000  0.91047000  1.0
  H  H25  1  0.64720000  0.79945000  0.90191000  1.0
  H  H26  1  0.45228000  0.80896000  0.02423000  1.0
  C  C1  1  0.88006000  0.31423000  0.68535000  1.0
  C  C2  1  0.78318000  0.45590000  0.50250000  1.0
  C  C3  1  0.12575000  0.47231000  0.60722000  1.0
  C  C4  1  0.76864000  0.09403000  0.17611000  1.0
  C  C5  1  0.72543000  0.93110000  0.03208000  1.0
  C  C6  1  0.44309000  0.13434000  0.03645000  1.0
  C  C7  1  0.11993000  0.68578000  0.31465000  1.0
  C  C8  1  0.21681000  0.54411000  0.49750000  1.0
  C  C9  1  0.87425000  0.52769000  0.39278000  1.0
  C  C10  1  0.23135000  0.90597000  0.82390000  1.0
  C  C11  1  0.27456000  0.06891000  0.96792000  1.0
  C  C12  1  0.55690000  0.86566000  0.96356000  1.0
  N  N1  1  0.97263000  0.37571000  0.57505000  1.0
  N  N2  1  0.60199000  0.02967000  0.10938000  1.0
  N  N3  1  0.02736000  0.62430000  0.42496000  1.0
  N  N4  1  0.39800000  0.97033000  0.89063000  1.0
  O  O1  1  0.49813000  0.22697000  0.59487000  1.0
  O  O2  1  0.89019000  0.07350000  0.60008000  1.0
  O  O3  1  0.67886000  0.11454000  0.79315000  1.0
  O  O4  1  0.87565000  0.22038000  0.35051000  1.0
  O  O5  1  0.43849000  0.26128000  0.29413000  1.0
  O  O6  1  0.60143000  0.04115000  0.39348000  1.0
  O  O7  1  0.50186000  0.77304000  0.40513000  1.0
  O  O8  1  0.10981000  0.92650000  0.39992000  1.0
  O  O9  1  0.32114000  0.88547000  0.20685000  1.0
  O  O10  1  0.12435000  0.77962000  0.64949000  1.0
  O  O11  1  0.56150000  0.73872000  0.70588000  1.0
  O  O12  1  0.39856000  0.95885000  0.60652000  1.0
