# generated using pymatgen
data_LiZnH6(C5O2)4
_symmetry_space_group_name_H-M   'P 1'
_cell_length_a   9.58943000
_cell_length_b   15.31985000
_cell_length_c   21.55524000
_cell_angle_alpha   89.98644000
_cell_angle_beta   98.50001000
_cell_angle_gamma   89.94256000
_symmetry_Int_Tables_number   1
_chemical_formula_structural   LiZnH6(C5O2)4
_chemical_formula_sum   'Li4 Zn4 H24 C80 O32'
_cell_volume   3131.86594290
_cell_formula_units_Z   4
loop_
 _symmetry_equiv_pos_site_id
 _symmetry_equiv_pos_as_xyz
  1  'x, y, z'
loop_
 _atom_site_type_symbol
 _atom_site_label
 _atom_site_symmetry_multiplicity
 _atom_site_fract_x
 _atom_site_fract_y
 _atom_site_fract_z
 _atom_site_occupancy
  Li  Li0  1  0.49654000  0.15977000  0.19482000  1
  Li  Li1  1  0.50411000  0.65959000  0.30543000  1
  Li  Li2  1  0.50347000  0.84023000  0.80518000  1
  Li  Li3  1  0.49590000  0.34041000  0.69457000  1
  Zn  Zn4  1  0.26554000  0.26899000  0.26076000  1
  Zn  Zn5  1  0.73468000  0.76782000  0.23911000  1
  Zn  Zn6  1  0.73447000  0.73101000  0.73924000  1
  Zn  Zn7  1  0.26533000  0.23218000  0.76089000  1
  H  H8  1  0.44930000  0.49338000  0.20953000  1
  H  H9  1  0.54370000  0.71675000  0.06618000  1
  H  H10  1  0.44385000  0.27820000  0.04757000  1
  H  H11  1  0.00069000  0.51376000  0.28524000  1
  H  H12  1  0.24987000  0.34470000  0.45433000  1
  H  H13  1  0.75036000  0.66230000  0.43119000  1
  H  H14  1  0.55168000  0.99399000  0.29043000  1
  H  H15  1  0.45643000  0.21713000  0.43422000  1
  H  H16  1  0.55633000  0.77840000  0.45210000  1
  H  H17  1  0.00058000  0.01394000  0.21489000  1
  H  H18  1  0.75204000  0.84440000  0.04625000  1
  H  H19  1  0.24910000  0.16262000  0.06828000  1
  H  H20  1  0.55071000  0.50662000  0.79047000  1
  H  H21  1  0.45630000  0.28325000  0.93382000  1
  H  H22  1  0.55615000  0.72180000  0.95244000  1
  H  H23  1  0.99932000  0.48624000  0.71476000  1
  H  H24  1  0.75013000  0.65530000  0.54567000  1
  H  H25  1  0.24964000  0.33770000  0.56881000  1
  H  H26  1  0.44833000  0.00600000  0.70957000  1
  H  H27  1  0.54358000  0.78286000  0.56578000  1
  H  H28  1  0.44368000  0.22160000  0.54790000  1
  H  H29  1  0.99943000  0.98606000  0.78511000  1
  H  H30  1  0.24796000  0.15560000  0.95375000  1
  H  H31  1  0.75090000  0.83738000  0.93172000  1
  C  C32  1  0.42015000  0.33611000  0.16175000  1
  C  C33  1  0.45207000  0.41683000  0.12653000  1
  C  C34  1  0.46417000  0.49459000  0.16054000  1
  C  C35  1  0.49736000  0.57332000  0.13376000  1
  C  C36  1  0.52356000  0.64940000  0.17788000  1
  C  C37  1  0.51023000  0.57721000  0.06884000  1
  C  C38  1  0.53325000  0.65723000  0.03846000  1
  C  C39  1  0.45775000  0.33998000  0.02460000  1
  C  C40  1  0.46910000  0.41711000  0.06181000  1
  C  C41  1  0.49461000  0.49858000  0.03268000  1
  C  C42  1  0.18566000  0.39598000  0.33887000  1
  C  C43  1  0.08924000  0.45100000  0.37152000  1
  C  C44  1  0.00080000  0.51067000  0.33571000  1
  C  C45  1  0.91046000  0.56450000  0.36332000  1
  C  C46  1  0.80769000  0.62136000  0.32208000  1
  C  C47  1  0.09120000  0.44599000  0.43813000  1
  C  C48  1  0.17975000  0.38684000  0.47621000  1
  C  C49  1  0.82016000  0.61685000  0.45957000  1
  C  C50  1  0.90850000  0.56158000  0.42973000  1
  C  C51  1  0.99996000  0.50189000  0.46695000  1
  C  C52  1  0.57976000  0.83600000  0.33819000  1
  C  C53  1  0.54859000  0.91711000  0.37332000  1
  C  C54  1  0.53687000  0.99504000  0.33944000  1
  C  C55  1  0.50361000  0.07375000  0.36633000  1
  C  C56  1  0.47620000  0.14981000  0.32216000  1
  C  C57  1  0.49033000  0.07751000  0.43125000  1
  C  C58  1  0.46687000  0.15740000  0.46176000  1
  C  C59  1  0.54240000  0.84008000  0.47519000  1
  C  C60  1  0.53112000  0.91732000  0.43804000  1
  C  C61  1  0.50560000  0.99872000  0.46732000  1
  C  C62  1  0.81430000  0.89627000  0.16070000  1
  C  C63  1  0.91185000  0.95116000  0.12864000  1
  C  C64  1  0.00028000  0.01083000  0.16441000  1
  C  C65  1  0.09006000  0.06489000  0.13668000  1
  C  C66  1  0.19229000  0.12240000  0.17776000  1
  C  C67  1  0.90974000  0.94606000  0.06204000  1
  C  C68  1  0.82135000  0.88678000  0.02417000  1
  C  C69  1  0.17939000  0.11702000  0.04010000  1
  C  C70  1  0.09162000  0.06181000  0.07018000  1
  C  C71  1  0.00035000  0.00198000  0.03307000  1
  C  C72  1  0.57985000  0.66389000  0.83825000  1
  C  C73  1  0.54793000  0.58317000  0.87348000  1
  C  C74  1  0.53584000  0.50541000  0.83946000  1
  C  C75  1  0.50265000  0.42668000  0.86625000  1
  C  C76  1  0.47644000  0.35060000  0.82213000  1
  C  C77  1  0.48977000  0.42279000  0.93116000  1
  C  C78  1  0.46675000  0.34277000  0.96154000  1
  C  C79  1  0.54226000  0.66002000  0.97540000  1
  C  C80  1  0.53090000  0.58289000  0.93819000  1
  C  C81  1  0.50539000  0.50142000  0.96733000  1
  C  C82  1  0.81434000  0.60402000  0.66113000  1
  C  C83  1  0.91077000  0.54900000  0.62849000  1
  C  C84  1  0.99920000  0.48933000  0.66429000  1
  C  C85  1  0.08955000  0.43550000  0.63668000  1
  C  C86  1  0.19232000  0.37864000  0.67792000  1
  C  C87  1  0.90881000  0.55401000  0.56187000  1
  C  C88  1  0.82026000  0.61316000  0.52379000  1
  C  C89  1  0.17985000  0.38315000  0.54043000  1
  C  C90  1  0.09151000  0.43842000  0.57027000  1
  C  C91  1  0.00004000  0.49811000  0.53305000  1
  C  C92  1  0.42025000  0.16399000  0.66181000  1
  C  C93  1  0.45142000  0.08289000  0.62668000  1
  C  C94  1  0.46314000  0.00496000  0.66056000  1
  C  C95  1  0.49639000  0.92625000  0.63367000  1
  C  C96  1  0.52381000  0.85018000  0.67784000  1
  C  C97  1  0.50967000  0.92249000  0.56875000  1
  C  C98  1  0.53314000  0.84260000  0.53825000  1
  C  C99  1  0.45761000  0.15991000  0.52481000  1
  C  C100  1  0.46889000  0.08268000  0.56196000  1
  C  C101  1  0.49440000  0.00128000  0.53269000  1
  C  C102  1  0.18571000  0.10373000  0.83930000  1
  C  C103  1  0.08815000  0.04884000  0.87136000  1
  C  C104  1  0.99973000  0.98917000  0.83559000  1
  C  C105  1  0.90994000  0.93511000  0.86333000  1
  C  C106  1  0.80771000  0.87760000  0.82225000  1
  C  C107  1  0.09026000  0.05394000  0.93797000  1
  C  C108  1  0.17865000  0.11321000  0.97584000  1
  C  C109  1  0.82061000  0.88297000  0.95990000  1
  C  C110  1  0.90838000  0.93819000  0.92982000  1
  C  C111  1  0.99966000  0.99802000  0.96694000  1
  O  O112  1  0.47251000  0.26375000  0.14951000  1
  O  O113  1  0.34028000  0.35079000  0.20348000  1
  O  O114  1  0.44460000  0.65790000  0.21905000  1
  O  O115  1  0.63145000  0.69680000  0.17155000  1
  O  O116  1  0.12605000  0.33767000  0.30096000  1
  O  O117  1  0.31411000  0.41310000  0.35013000  1
  O  O118  1  0.68003000  0.60049000  0.31883000  1
  O  O119  1  0.86053000  0.68400000  0.29413000  1
  O  O120  1  0.52635000  0.76412000  0.35062000  1
  O  O121  1  0.66003000  0.84942000  0.29651000  1
  O  O122  1  0.55555000  0.15981000  0.28127000  1
  O  O123  1  0.36637000  0.19557000  0.32816000  1
  O  O124  1  0.87206000  0.83555000  0.19697000  1
  O  O125  1  0.68663000  0.91563000  0.15005000  1
  O  O126  1  0.32022000  0.10216000  0.18098000  1
  O  O127  1  0.13916000  0.18492000  0.20570000  1
  O  O128  1  0.52750000  0.73625000  0.85049000  1
  O  O129  1  0.65973000  0.64921000  0.79653000  1
  O  O130  1  0.55541000  0.34210000  0.78096000  1
  O  O131  1  0.36855000  0.30320000  0.82845000  1
  O  O132  1  0.87396000  0.66232000  0.69905000  1
  O  O133  1  0.68589000  0.58690000  0.64987000  1
  O  O134  1  0.31998000  0.39951000  0.68117000  1
  O  O135  1  0.13948000  0.31599000  0.70587000  1
  O  O136  1  0.47366000  0.23588000  0.64938000  1
  O  O137  1  0.33998000  0.15058000  0.70350000  1
  O  O138  1  0.44446000  0.84019000  0.71873000  1
  O  O139  1  0.63363000  0.80443000  0.67184000  1
  O  O140  1  0.12794000  0.16445000  0.80303000  1
  O  O141  1  0.31338000  0.08437000  0.84995000  1
  O  O142  1  0.67978000  0.89784000  0.81902000  1
  O  O143  1  0.86085000  0.81508000  0.79430000  1
