# generated using pymatgen
data_Cu2H24C19(NO)6
_symmetry_space_group_name_H-M   'P 1'
_cell_length_a   13.18253000
_cell_length_b   14.43444000
_cell_length_c   16.30863000
_cell_angle_alpha   90.00000000
_cell_angle_beta   90.00000000
_cell_angle_gamma   90.00000000
_symmetry_Int_Tables_number   1
_chemical_formula_structural   Cu2H24C19(NO)6
_chemical_formula_sum   'Cu8 H96 C76 N24 O24'
_cell_volume   3103.24588227
_cell_formula_units_Z   4
loop_
 _symmetry_equiv_pos_site_id
 _symmetry_equiv_pos_as_xyz
  1  'x, y, z'
loop_
 _atom_site_type_symbol
 _atom_site_label
 _atom_site_symmetry_multiplicity
 _atom_site_fract_x
 _atom_site_fract_y
 _atom_site_fract_z
 _atom_site_occupancy
  Cu  Cu1  1  0.21235000  0.70502000  0.16203000  1.0
  Cu  Cu2  1  0.94038000  0.96190000  0.08395000  1.0
  Cu  Cu3  1  0.78764000  0.20501000  0.33797000  1.0
  Cu  Cu4  1  0.28765000  0.29499000  0.66203000  1.0
  Cu  Cu5  1  0.55962000  0.03811000  0.58395000  1.0
  Cu  Cu6  1  0.71235000  0.79499000  0.83797000  1.0
  Cu  Cu7  1  0.05962000  0.46190000  0.41605000  1.0
  Cu  Cu8  1  0.44038000  0.53811000  0.91605000  1.0
  H  H1  1  0.51616000  0.73356000  0.54235000  1.0
  H  H2  1  0.91546000  0.04430000  0.73547000  1.0
  H  H3  1  0.43146000  0.59987000  0.48569000  1.0
  H  H4  1  0.42758000  0.18572000  0.08328000  1.0
  H  H5  1  0.57242000  0.68572000  0.41672000  1.0
  H  H6  1  0.99227000  0.66016000  0.97296000  1.0
  H  H7  1  0.86386000  0.95444000  0.91278000  1.0
  H  H8  1  0.01616000  0.76645000  0.45765000  1.0
  H  H9  1  0.43849000  0.42292000  0.53075000  1.0
  H  H10  1  0.00773000  0.16016000  0.52703000  1.0
  H  H11  1  0.41546000  0.45570000  0.26453000  1.0
  H  H12  1  0.22054000  0.61780000  0.33129000  1.0
  H  H13  1  0.89568000  0.27681000  0.81770000  1.0
  H  H14  1  0.20670000  0.52485000  0.72294000  1.0
  H  H15  1  0.07908000  0.58409000  0.92183000  1.0
  H  H16  1  0.39568000  0.22319000  0.18230000  1.0
  H  H17  1  0.82814000  0.82529000  0.49323000  1.0
  H  H18  1  0.59509000  0.09092000  0.87405000  1.0
  H  H19  1  0.50773000  0.33984000  0.47297000  1.0
  H  H20  1  0.90491000  0.90908000  0.37405000  1.0
  H  H21  1  0.13613000  0.45444000  0.58722000  1.0
  H  H22  1  0.94900000  0.65717000  0.81404000  1.0
  H  H23  1  0.51675000  0.17927000  0.82982000  1.0
  H  H24  1  0.06151000  0.57708000  0.03075000  1.0
  H  H25  1  0.54237000  0.75472000  0.18852000  1.0
  H  H26  1  0.93146000  0.90014000  0.51431000  1.0
  H  H27  1  0.45145000  0.02537000  0.79080000  1.0
  H  H28  1  0.72054000  0.88221000  0.66871000  1.0
  H  H29  1  0.27946000  0.38221000  0.83128000  1.0
  H  H30  1  0.47369000  0.33090000  0.89126000  1.0
  H  H31  1  0.45763000  0.25472000  0.31148000  1.0
  H  H32  1  0.10432000  0.77682000  0.68230000  1.0
  H  H33  1  0.09509000  0.40908000  0.12595000  1.0
  H  H34  1  0.33017000  0.36166000  0.25265000  1.0
  H  H35  1  0.40491000  0.59092000  0.62595000  1.0
  H  H36  1  0.05100000  0.15717000  0.68595000  1.0
  H  H37  1  0.29330000  0.47516000  0.22294000  1.0
  H  H38  1  0.07242000  0.81429000  0.58328000  1.0
  H  H39  1  0.54854000  0.52537000  0.70920000  1.0
  H  H40  1  0.52631000  0.83090000  0.60873000  1.0
  H  H41  1  0.92092000  0.08408000  0.57816000  1.0
  H  H42  1  0.36277000  0.65393000  0.71354000  1.0
  H  H43  1  0.19437000  0.43637000  0.96382000  1.0
  H  H44  1  0.30563000  0.56363000  0.46382000  1.0
  H  H45  1  0.91387000  0.68775000  0.44925000  1.0
  H  H46  1  0.66983000  0.86166000  0.24735000  1.0
  H  H47  1  0.06836000  0.26094000  0.62813000  1.0
  H  H48  1  0.48324000  0.67927000  0.67017000  1.0
  H  H49  1  0.01675000  0.32074000  0.17017000  1.0
  H  H50  1  0.32814000  0.67471000  0.50677000  1.0
  H  H51  1  0.48384000  0.23356000  0.95765000  1.0
  H  H52  1  0.08454000  0.54430000  0.76453000  1.0
  H  H53  1  0.13723000  0.34608000  0.21354000  1.0
  H  H54  1  0.79330000  0.02485000  0.77706000  1.0
  H  H55  1  0.65405000  0.75650000  0.06080000  1.0
  H  H56  1  0.58454000  0.95570000  0.23547000  1.0
  H  H57  1  0.63722000  0.15393000  0.78646000  1.0
  H  H58  1  0.60432000  0.72319000  0.31770000  1.0
  H  H59  1  0.16983000  0.63835000  0.75265000  1.0
  H  H60  1  0.41387000  0.81225000  0.55075000  1.0
  H  H61  1  0.04237000  0.74528000  0.81148000  1.0
  H  H62  1  0.57908000  0.91592000  0.07817000  1.0
  H  H63  1  0.56836000  0.23907000  0.37187000  1.0
  H  H64  1  0.95763000  0.24528000  0.68852000  1.0
  H  H65  1  0.70670000  0.97516000  0.27706000  1.0
  H  H66  1  0.67186000  0.17471000  0.99323000  1.0
  H  H67  1  0.95146000  0.47463000  0.20920000  1.0
  H  H68  1  0.63613000  0.04556000  0.41278000  1.0
  H  H69  1  0.43164000  0.73907000  0.12813000  1.0
  H  H70  1  0.93164000  0.76094000  0.87187000  1.0
  H  H71  1  0.55100000  0.34284000  0.31404000  1.0
  H  H72  1  0.58612000  0.31225000  0.94925000  1.0
  H  H73  1  0.56151000  0.92292000  0.96924000  1.0
  H  H74  1  0.36386000  0.54556000  0.08722000  1.0
  H  H75  1  0.97369000  0.16910000  0.10873000  1.0
  H  H76  1  0.02631000  0.66910000  0.39126000  1.0
  H  H77  1  0.44900000  0.84284000  0.18595000  1.0
  H  H78  1  0.17186000  0.32529000  0.00677000  1.0
  H  H79  1  0.83017000  0.13834000  0.74735000  1.0
  H  H80  1  0.98324000  0.82074000  0.32982000  1.0
  H  H81  1  0.86277000  0.84608000  0.28646000  1.0
  H  H82  1  0.08612000  0.18775000  0.05075000  1.0
  H  H83  1  0.84595000  0.24351000  0.56080000  1.0
  H  H84  1  0.04854000  0.97463000  0.29080000  1.0
  H  H85  1  0.15405000  0.74351000  0.93920000  1.0
  H  H86  1  0.80563000  0.93637000  0.53618000  1.0
  H  H87  1  0.49227000  0.83984000  0.02703000  1.0
  H  H88  1  0.34595000  0.25650000  0.43920000  1.0
  H  H89  1  0.92758000  0.31428000  0.91672000  1.0
  H  H90  1  0.42092000  0.41592000  0.42183000  1.0
  H  H91  1  0.69437000  0.06363000  0.03618000  1.0
  H  H92  1  0.77946000  0.11780000  0.16871000  1.0
  H  H93  1  0.98384000  0.26645000  0.04235000  1.0
  H  H94  1  0.06854000  0.40013000  0.98569000  1.0
  H  H95  1  0.56854000  0.09987000  0.01431000  1.0
  H  H96  1  0.93849000  0.07708000  0.46925000  1.0
  C  C1  1  0.42619000  0.18501000  0.57863000  1.0
  C  C2  1  0.40896000  0.46892000  0.75305000  1.0
  C  C3  1  0.15048000  0.69545000  0.99150000  1.0
  C  C4  1  0.43487000  0.37594000  0.47792000  1.0
  C  C5  1  0.06295000  0.66815000  0.60007000  1.0
  C  C6  1  0.03965000  0.23259000  0.68609000  1.0
  C  C7  1  0.44559000  0.70802000  0.33741000  1.0
  C  C8  1  0.47961000  0.55178000  0.73964000  1.0
  C  C9  1  0.60341000  0.90985000  0.36021000  1.0
  C  C10  1  0.74775000  0.14449000  0.50173000  1.0
  C  C11  1  0.24775000  0.35551000  0.49827000  1.0
  C  C12  1  0.04991000  0.76574000  0.63207000  1.0
  C  C13  1  0.85741000  0.87676000  0.53691000  1.0
  C  C14  1  0.64259000  0.12324000  0.03691000  1.0
  C  C15  1  0.10341000  0.59016000  0.63979000  1.0
  C  C16  1  0.40865000  0.72326000  0.25718000  1.0
  C  C17  1  0.00292000  0.19301000  0.04947000  1.0
  C  C18  1  0.86679000  0.83790000  0.62134000  1.0
  C  C19  1  0.09135000  0.27674000  0.75718000  1.0
  C  C20  1  0.95899000  0.13842000  0.98065000  1.0
  C  C21  1  0.57074000  0.12363000  0.81671000  1.0
  C  C22  1  0.56295000  0.83186000  0.39993000  1.0
  C  C23  1  0.49708000  0.80699000  0.54947000  1.0
  C  C24  1  0.89659000  0.09016000  0.86021000  1.0
  C  C25  1  0.59103000  0.96892000  0.74695000  1.0
  C  C26  1  0.85687000  0.07393000  0.77570000  1.0
  C  C27  1  0.45899000  0.36158000  0.01934000  1.0
  C  C28  1  0.06513000  0.62406000  0.97792000  1.0
  C  C29  1  0.56513000  0.87594000  0.02208000  1.0
  C  C30  1  0.35687000  0.42607000  0.22430000  1.0
  C  C31  1  0.92984000  0.34433000  0.33201000  1.0
  C  C32  1  0.84952000  0.19545000  0.50849000  1.0
  C  C33  1  0.93487000  0.12406000  0.52208000  1.0
  C  C34  1  0.07381000  0.81499000  0.07864000  1.0
  C  C35  1  0.09103000  0.53108000  0.25305000  1.0
  C  C36  1  0.93704000  0.16815000  0.89993000  1.0
  C  C37  1  0.05440000  0.29199000  0.83741000  1.0
  C  C38  1  0.65048000  0.80455000  0.00849000  1.0
  C  C39  1  0.39659000  0.40985000  0.13979000  1.0
  C  C40  1  0.90865000  0.77674000  0.74282000  1.0
  C  C41  1  0.50292000  0.30699000  0.95053000  1.0
  C  C42  1  0.54991000  0.73427000  0.36792000  1.0
  C  C43  1  0.35741000  0.62324000  0.46309000  1.0
  C  C44  1  0.07074000  0.37637000  0.18329000  1.0
  C  C45  1  0.53965000  0.26741000  0.31391000  1.0
  C  C46  1  0.92619000  0.31499000  0.42136000  1.0
  C  C47  1  0.52039000  0.05178000  0.76035000  1.0
  C  C48  1  0.64313000  0.92607000  0.27570000  1.0
  C  C49  1  0.34952000  0.30455000  0.49151000  1.0
  C  C50  1  0.57381000  0.68502000  0.92136000  1.0
  C  C51  1  0.59135000  0.22326000  0.24282000  1.0
  C  C52  1  0.13321000  0.33790000  0.87866000  1.0
  C  C53  1  0.57016000  0.65567000  0.83201000  1.0
  C  C54  1  0.54101000  0.86158000  0.48065000  1.0
  C  C55  1  0.94559000  0.79199000  0.66258000  1.0
  C  C56  1  0.95009000  0.26574000  0.86792000  1.0
  C  C57  1  0.14313000  0.57394000  0.72429000  1.0
  C  C58  1  0.97961000  0.94822000  0.26036000  1.0
  C  C59  1  0.42926000  0.62364000  0.68329000  1.0
  C  C60  1  0.43705000  0.33186000  0.10007000  1.0
  C  C61  1  0.02039000  0.44822000  0.23964000  1.0
  C  C62  1  0.92926000  0.87637000  0.31671000  1.0
  C  C63  1  0.07016000  0.84433000  0.16799000  1.0
  C  C64  1  0.45009000  0.23427000  0.13208000  1.0
  C  C65  1  0.90896000  0.03108000  0.24695000  1.0
  C  C66  1  0.96034000  0.73259000  0.81390000  1.0
  C  C67  1  0.36679000  0.66211000  0.37866000  1.0
  C  C68  1  0.04101000  0.63842000  0.51934000  1.0
  C  C69  1  0.99708000  0.69301000  0.45053000  1.0
  C  C70  1  0.46035000  0.76741000  0.18609000  1.0
  C  C71  1  0.14259000  0.37676000  0.96309000  1.0
  C  C72  1  0.25225000  0.64450000  0.99827000  1.0
  C  C73  1  0.42984000  0.15567000  0.66799000  1.0
  C  C74  1  0.63321000  0.16211000  0.12134000  1.0
  C  C75  1  0.75225000  0.85551000  0.00173000  1.0
  C  C76  1  0.55440000  0.20802000  0.16258000  1.0
  N  N1  1  0.50357000  0.58968000  0.81943000  1.0
  N  N2  1  0.56643000  0.95155000  0.48938000  1.0
  N  N3  1  0.13496000  0.74435000  0.06778000  1.0
  N  N4  1  0.43357000  0.45155000  0.01062000  1.0
  N  N5  1  0.39733000  0.47982000  0.08427000  1.0
  N  N6  1  0.60266000  0.97982000  0.41573000  1.0
  N  N7  1  0.21103000  0.34584000  0.82480000  1.0
  N  N8  1  0.68659000  0.18986000  0.24951000  1.0
  N  N9  1  0.31341000  0.68986000  0.25049000  1.0
  N  N10  1  0.06642000  0.54846000  0.51062000  1.0
  N  N11  1  0.93357000  0.04845000  0.98937000  1.0
  N  N12  1  0.99643000  0.41032000  0.31943000  1.0
  N  N13  1  0.36504000  0.25565000  0.56778000  1.0
  N  N14  1  0.18659000  0.31014000  0.75049000  1.0
  N  N15  1  0.86504000  0.24435000  0.43222000  1.0
  N  N16  1  0.89733000  0.02019000  0.91573000  1.0
  N  N17  1  0.00357000  0.91032000  0.18057000  1.0
  N  N18  1  0.49643000  0.08968000  0.68056000  1.0
  N  N19  1  0.28897000  0.65416000  0.32481000  1.0
  N  N20  1  0.63496000  0.75566000  0.93222000  1.0
  N  N21  1  0.10266000  0.52019000  0.58427000  1.0
  N  N22  1  0.78897000  0.84584000  0.67519000  1.0
  N  N23  1  0.71103000  0.15416000  0.17519000  1.0
  N  N24  1  0.81341000  0.81014000  0.74951000  1.0
  O  O1  1  0.88373000  0.05086000  0.17157000  1.0
  O  O2  1  0.98028000  0.35756000  0.47496000  1.0
  O  O3  1  0.79373000  0.85878000  0.92929000  1.0
  O  O4  1  0.28773000  0.60615000  0.93566000  1.0
  O  O5  1  0.12707000  0.80446000  0.22128000  1.0
  O  O6  1  0.21227000  0.39385000  0.43566000  1.0
  O  O7  1  0.37815000  0.42559000  0.69152000  1.0
  O  O8  1  0.61627000  0.94915000  0.67157000  1.0
  O  O9  1  0.12185000  0.57441000  0.19152000  1.0
  O  O10  1  0.29373000  0.64123000  0.07071000  1.0
  O  O11  1  0.78773000  0.89385000  0.06434000  1.0
  O  O12  1  0.11627000  0.55086000  0.32843000  1.0
  O  O13  1  0.38373000  0.44915000  0.82843000  1.0
  O  O14  1  0.20627000  0.35878000  0.57071000  1.0
  O  O15  1  0.48028000  0.14245000  0.52504000  1.0
  O  O16  1  0.51972000  0.64245000  0.97496000  1.0
  O  O17  1  0.87815000  0.07441000  0.30847000  1.0
  O  O18  1  0.62707000  0.69554000  0.77871000  1.0
  O  O19  1  0.01972000  0.85756000  0.02504000  1.0
  O  O20  1  0.87293000  0.30446000  0.27871000  1.0
  O  O21  1  0.62185000  0.92559000  0.80847000  1.0
  O  O22  1  0.37293000  0.19554000  0.72128000  1.0
  O  O23  1  0.71227000  0.10615000  0.56434000  1.0
  O  O24  1  0.70627000  0.14123000  0.42929000  1.0
