# generated using pymatgen
data_H6C12N2O
_symmetry_space_group_name_H-M   'P 1'
_cell_length_a   9.88340000
_cell_length_b   37.60495000
_cell_length_c   37.60500000
_cell_angle_alpha   120.00013195
_cell_angle_beta   90.00000000
_cell_angle_gamma   90.00000000
_symmetry_Int_Tables_number   1
_chemical_formula_structural   H6C12N2O
_chemical_formula_sum   'H108 C216 N36 O18'
_cell_volume   12103.94761102
_cell_formula_units_Z   18
loop_
 _symmetry_equiv_pos_site_id
 _symmetry_equiv_pos_as_xyz
  1  'x, y, z'
loop_
 _atom_site_type_symbol
 _atom_site_label
 _atom_site_symmetry_multiplicity
 _atom_site_fract_x
 _atom_site_fract_y
 _atom_site_fract_z
 _atom_site_occupancy
  C  1  1  0.97180400  0.90506000  0.14811600  1
  C  2  1  0.97862700  0.88259500  0.10461600  1
  C  3  1  0.97597900  0.83904800  0.08216200  1
  C  4  1  0.96599200  0.81793300  0.10447500  1
  C  5  1  0.95933800  0.83922800  0.14791600  1
  C  6  1  0.96128100  0.88271900  0.16919600  1
  C  10  1  0.97148500  0.23699000  0.08308000  1
  C  11  1  0.97830300  0.21595500  0.10554700  1
  C  12  1  0.97567400  0.23704600  0.14909600  1
  C  13  1  0.96569300  0.28047500  0.17021100  1
  C  14  1  0.95909100  0.30262500  0.14891800  1
  C  15  1  0.96100400  0.28041000  0.10542400  1
  C  19  1  0.97185900  0.84002200  0.75116900  1
  C  20  1  0.97866900  0.88352000  0.77220000  1
  C  21  1  0.97594800  0.90597200  0.75110400  1
  C  22  1  0.96588000  0.88365700  0.70767900  1
  C  23  1  0.95934400  0.84021200  0.68553500  1
  C  24  1  0.96135700  0.81893700  0.70774900  1
  C  28  1  0.97174900  0.08298700  0.84010300  1
  C  29  1  0.97846500  0.10546500  0.88360600  1
  C  30  1  0.97572300  0.14901000  0.90605300  1
  C  31  1  0.96570700  0.17011400  0.88372600  1
  C  32  1  0.95928200  0.14880700  0.84028000  1
  C  33  1  0.96139300  0.10531700  0.81901200  1
  C  37  1  0.97190100  0.75103500  0.90515000  1
  C  38  1  0.97874900  0.77207100  0.88268700  1
  C  39  1  0.97605800  0.75098100  0.83914000  1
  C  40  1  0.96601100  0.70755400  0.81802200  1
  C  41  1  0.95940200  0.68540500  0.83931700  1
  C  42  1  0.96140300  0.70761400  0.88280700  1
  C  46  1  0.97158600  0.14804000  0.23711700  1
  C  47  1  0.97848600  0.10454000  0.21607200  1
  C  48  1  0.97592700  0.08207200  0.23715100  1
  C  49  1  0.96601000  0.10437300  0.28058100  1
  C  50  1  0.95923700  0.14781500  0.30274300  1
  C  51  1  0.96109300  0.16910500  0.28053900  1
  C  55  1  0.00835800  0.68590200  0.23500300  1
  C  56  1  0.02379400  0.70884800  0.27810800  1
  C  57  1  0.00653700  0.75188700  0.30109600  1
  C  58  1  0.97376000  0.77259600  0.27948600  1
  C  59  1  0.96398600  0.75099000  0.23593700  1
  C  60  1  0.97624000  0.70750400  0.21425200  1
  C  64  1  0.00821700  0.54304500  0.30224600  1
  C  65  1  0.02367700  0.56321200  0.27931100  1
  C  66  1  0.00659400  0.54316100  0.23626500  1
  C  67  1  0.97379700  0.50084400  0.21554600  1
  C  68  1  0.96403700  0.47889100  0.23714400  1
  C  69  1  0.97633100  0.50067600  0.28062900  1
  C  73  1  0.00778200  0.75311400  0.44512700  1
  C  74  1  0.02328800  0.71001400  0.42495000  1
  C  75  1  0.00631000  0.68701300  0.44499800  1
  C  76  1  0.97374000  0.70861100  0.48732900  1
  C  77  1  0.96382400  0.75215700  0.50928000  1
  C  78  1  0.97571500  0.77385700  0.48748400  1
  C  82  1  0.00925300  0.30201100  0.75311700  1
  C  83  1  0.02564600  0.27904000  0.71004900  1
  C  84  1  0.00870700  0.23598900  0.68703400  1
  C  85  1  0.97501700  0.21529200  0.70859100  1
  C  86  1  0.96452400  0.23691600  0.75213000  1
  C  87  1  0.97611800  0.28042100  0.77381200  1
  C  91  1  0.00683100  0.44493400  0.68597100  1
  C  92  1  0.02212500  0.42476300  0.70890700  1
  C  93  1  0.00543500  0.44485600  0.75197200  1
  C  94  1  0.97295200  0.48719600  0.77269800  1
  C  95  1  0.96349100  0.50914300  0.75108600  1
  C  96  1  0.97526400  0.48732300  0.70758500  1
  C  100  1  0.00997800  0.23471700  0.54308600  1
  C  101  1  0.02507800  0.27783100  0.56325500  1
  C  102  1  0.00707900  0.30085900  0.54327000  1
  C  103  1  0.97352000  0.27926400  0.50100200  1
  C  104  1  0.96444300  0.23569800  0.47901200  1
  C  105  1  0.97744600  0.21398400  0.50076200  1
  C  109  1  0.95386800  0.81723500  0.16987600  1
  C  110  1  0.83035400  0.80759300  0.18276000  1
  C  111  1  0.83356600  0.78558600  0.20472100  1
  C  112  1  0.95724800  0.77297300  0.21400400  1
  C  113  1  0.07839900  0.78272600  0.20079200  1
  C  114  1  0.07673600  0.80438600  0.17918700  1
  C  116  1  0.59240900  0.78737500  0.20845300  1
  C  117  1  0.58803800  0.80889200  0.18690500  1
  C  124  1  0.95369300  0.34657900  0.17090800  1
  C  125  1  0.83022800  0.36912500  0.18051100  1
  C  126  1  0.83351500  0.41309400  0.20251000  1
  C  127  1  0.95722000  0.43497400  0.21515400  1
  C  128  1  0.07832400  0.41198900  0.20544300  1
  C  129  1  0.07658900  0.36872200  0.18378700  1
  C  131  1  0.59237500  0.41507500  0.20066500  1
  C  132  1  0.58793100  0.37201200  0.17915800  1
  C  139  1  0.95384000  0.81824400  0.64158400  1
  C  140  1  0.83027000  0.80557200  0.61907100  1
  C  141  1  0.83344500  0.78360000  0.57510100  1
  C  142  1  0.95714700  0.77408400  0.55319500  1
  C  143  1  0.07836800  0.78706900  0.57614700  1
  C  144  1  0.07673600  0.80869200  0.61941500  1
  C  146  1  0.59223200  0.78024500  0.57318000  1
  C  147  1  0.58790100  0.80180100  0.61624300  1
  C  154  1  0.95393900  0.17077700  0.81829400  1
  C  155  1  0.83042500  0.18086000  0.80581800  1
  C  156  1  0.83377000  0.20283100  0.78382100  1
  C  157  1  0.95759300  0.21495100  0.77407800  1
  C  158  1  0.07875900  0.20472600  0.78685200  1
  C  159  1  0.07695400  0.18311000  0.80850400  1
  C  161  1  0.59251600  0.20183500  0.78081600  1
  C  162  1  0.58802300  0.18034700  0.80239100  1
  C  169  1  0.95381900  0.64145300  0.81732500  1
  C  170  1  0.83023200  0.61896200  0.80766500  1
  C  171  1  0.83331400  0.57499400  0.78566300  1
  C  172  1  0.95694000  0.55305900  0.77307600  1
  C  173  1  0.07816900  0.57599100  0.78284800  1
  C  174  1  0.07662900  0.61925800  0.80450300  1
  C  176  1  0.59214100  0.57311300  0.78741600  1
  C  177  1  0.58789600  0.61617800  0.80892800  1
  C  184  1  0.95387500  0.16975800  0.34670000  1
  C  185  1  0.83051000  0.18301300  0.36926500  1
  C  186  1  0.83385500  0.20494200  0.41323300  1
  C  187  1  0.95751300  0.21381200  0.43509700  1
  C  188  1  0.07850200  0.20020000  0.41209300  1
  C  189  1  0.07671100  0.17863800  0.36882600  1
  C  191  1  0.59282400  0.20934100  0.41524800  1
  C  192  1  0.58831200  0.18781500  0.37218600  1
  C  199  1  0.98227000  0.81696600  0.03802700  1
  C  200  1  0.09544900  0.81874100  0.01538300  1
  C  201  1  0.09121000  0.79708000  0.97140600  1
  C  202  1  0.97762500  0.77307800  0.94928800  1
  C  203  1  0.86845300  0.77084500  0.97236400  1
  C  204  1  0.87046600  0.79241600  0.01564200  1
  C  206  1  0.31543400  0.81985600  0.96938300  1
  C  207  1  0.32126700  0.84075900  0.01239400  1
  C  214  1  0.98195800  0.21499000  0.17117700  1
  C  215  1  0.09512500  0.19056700  0.16940300  1
  C  216  1  0.09088500  0.16825000  0.19106500  1
  C  217  1  0.97731800  0.17014500  0.21508100  1
  C  218  1  0.86818000  0.19547100  0.21732600  1
  C  219  1  0.87019300  0.21717500  0.19575000  1
  C  221  1  0.31508100  0.14343300  0.16827100  1
  C  222  1  0.32090900  0.16553700  0.14736400  1
  C  229  1  0.98221000  0.95011100  0.77316000  1
  C  230  1  0.09536300  0.97276400  0.79759000  1
  C  231  1  0.09109800  0.01673900  0.81990500  1
  C  232  1  0.97749600  0.03884900  0.81801600  1
  C  233  1  0.86836200  0.01576700  0.79269500  1
  C  234  1  0.87040600  0.97249000  0.77098600  1
  C  236  1  0.31533300  0.01877700  0.84470000  1
  C  237  1  0.32118000  0.97576900  0.82260900  1
  C  244  1  0.98197300  0.17109600  0.95019200  1
  C  245  1  0.09512000  0.16931300  0.97284500  1
  C  246  1  0.09084600  0.19096300  0.01682400  1
  C  247  1  0.97723200  0.21495400  0.03893900  1
  C  248  1  0.86811500  0.21720400  0.01585700  1
  C  249  1  0.87014800  0.19563200  0.97257500  1
  C  251  1  0.31508000  0.16820400  0.01885700  1
  C  252  1  0.32093900  0.14730200  0.97584700  1
  C  259  1  0.98231500  0.77304400  0.81706700  1
  C  260  1  0.09549000  0.79746500  0.81884100  1
  C  261  1  0.09123000  0.81978800  0.79718700  1
  C  262  1  0.97758700  0.81793000  0.77321400  1
  C  263  1  0.86841300  0.79262600  0.77098900  1
  C  264  1  0.87047600  0.77089500  0.79253700  1
  C  266  1  0.31550500  0.84455000  0.81991900  1
  C  267  1  0.32134400  0.82244900  0.84082800  1
  C  274  1  0.98220900  0.03793800  0.21508700  1
  C  275  1  0.09536300  0.01529500  0.19065200  1
  C  276  1  0.09112400  0.97131800  0.16833300  1
  C  277  1  0.97752700  0.94919900  0.17021200  1
  C  278  1  0.86838800  0.97227500  0.19553800  1
  C  279  1  0.87041100  0.01555200  0.21725200  1
  C  281  1  0.31534200  0.96929700  0.14353600  1
  C  282  1  0.32116200  0.01230600  0.16563300  1
  C  289  1  0.02907600  0.77261600  0.42154900  1
  C  290  1  0.14963000  0.76403200  0.39783300  1
  C  291  1  0.14680700  0.76317100  0.35957800  1
  C  292  1  0.02669600  0.77133000  0.34422500  1
  C  293  1  0.91216300  0.78440600  0.37032400  1
  C  294  1  0.91323700  0.78492400  0.40819300  1
  C  296  1  0.37913700  0.74253100  0.34823600  1
  C  297  1  0.38310400  0.74362900  0.38603100  1
  C  304  1  0.02958000  0.64280000  0.21550200  1
  C  305  1  0.15003600  0.62774000  0.22419000  1
  C  306  1  0.14689900  0.59035200  0.22505600  1
  C  307  1  0.02661500  0.56687000  0.21683800  1
  C  308  1  0.91230000  0.57989800  0.20368000  1
  C  309  1  0.91354900  0.61723800  0.20313700  1
  C  311  1  0.37915800  0.59960200  0.24579300  1
  C  312  1  0.38336700  0.63630300  0.24470400  1
  C  319  1  0.02935700  0.56664900  0.34533000  1
  C  320  1  0.14983400  0.59041300  0.36048100  1
  C  321  1  0.14692400  0.62865500  0.39788200  1
  C  322  1  0.02664600  0.64387700  0.42130200  1
  C  323  1  0.91210300  0.61780600  0.40830900  1
  C  324  1  0.91340700  0.57992300  0.37097600  1
  C  326  1  0.37918200  0.64008100  0.38863400  1
  C  327  1  0.38329400  0.60228700  0.35193600  1
  C  334  1  0.03121900  0.21522800  0.56669000  1
  C  335  1  0.15185800  0.22405900  0.59043500  1
  C  336  1  0.14920600  0.22493800  0.62869500  1
  C  337  1  0.02920800  0.21656100  0.64390000  1
  C  338  1  0.91488000  0.20312000  0.61774100  1
  C  339  1  0.91583100  0.20252500  0.57982900  1
  C  341  1  0.38116200  0.24593700  0.64014800  1
  C  342  1  0.38504600  0.24477600  0.60232100  1
  C  349  1  0.02955000  0.34513700  0.77257800  1
  C  350  1  0.14980900  0.36042100  0.76399100  1
  C  351  1  0.14631300  0.39784000  0.76318400  1
  C  352  1  0.02574100  0.42118000  0.77142900  1
  C  353  1  0.91175800  0.40809100  0.78462400  1
  C  354  1  0.91358100  0.37075600  0.78517100  1
  C  356  1  0.37865100  0.38887100  0.74257100  1
  C  357  1  0.38331600  0.35216500  0.74363400  1
  C  364  1  0.02786200  0.42132700  0.64286900  1
  C  365  1  0.14881200  0.39774600  0.62792800  1
  C  366  1  0.14643300  0.35943300  0.59059100  1
  C  367  1  0.02638400  0.34404300  0.56704500  1
  C  368  1  0.91167200  0.37004500  0.57971800  1
  C  369  1  0.91226900  0.40784500  0.61713300  1
  C  371  1  0.37889400  0.34838000  0.60004400  1
  C  372  1  0.38244700  0.38623300  0.63668200  1
  H  7  1  0.96530300  0.78647400  0.08884300  1
  H  8  1  0.95820100  0.89835700  0.20064200  1
  H  9  1  0.98446900  0.89829300  0.08890500  1
  H  16  1  0.96509100  0.29630200  0.20166700  1
  H  17  1  0.95796200  0.29622100  0.08978900  1
  H  18  1  0.98413900  0.18454500  0.08984600  1
  H  25  1  0.96520200  0.89928500  0.69184900  1
  H  26  1  0.95830600  0.78749100  0.69194400  1
  H  27  1  0.98448600  0.89923700  0.80361100  1
  H  34  1  0.96498900  0.20157300  0.89935000  1
  H  35  1  0.95837700  0.08966900  0.78756600  1
  H  36  1  0.98423400  0.08977200  0.89932500  1
  H  43  1  0.96529300  0.69173000  0.78656400  1
  H  44  1  0.95825100  0.69180900  0.89844600  1
  H  45  1  0.98455400  0.80348100  0.89838600  1
  H  52  1  0.96538900  0.08873200  0.29639800  1
  H  53  1  0.95792800  0.20054900  0.29635300  1
  H  54  1  0.98428400  0.08883500  0.18466000  1
  H  61  1  0.96726500  0.80397500  0.29533400  1
  H  62  1  0.97138400  0.69170300  0.18284400  1
  H  63  1  0.04304700  0.69334000  0.29358800  1
  H  70  1  0.96728500  0.48531700  0.18416600  1
  H  71  1  0.97124100  0.48506300  0.29641900  1
  H  72  1  0.04282600  0.59420800  0.29482800  1
  H  79  1  0.96746300  0.69276000  0.50286300  1
  H  80  1  0.97099400  0.80526600  0.50312300  1
  H  81  1  0.04260400  0.69454300  0.39396300  1
  H  88  1  0.96915300  0.18390400  0.69276800  1
  H  89  1  0.97067000  0.29621600  0.80520900  1
  H  90  1  0.04522900  0.29454100  0.69458000  1
  H  97  1  0.96719500  0.50276600  0.80409000  1
  H  98  1  0.97069500  0.50295400  0.69180500  1
  H  99  1  0.04106000  0.39375500  0.69339400  1
  H  106  1  0.96659700  0.29514600  0.48551300  1
  H  107  1  0.97278500  0.18257200  0.48513300  1
  H  108  1  0.04429100  0.29331100  0.59424800  1
  H  119  1  0.50580300  0.77979700  0.21793600  1
  H  120  1  0.16704400  0.81083400  0.17031000  1
  H  121  1  0.16981500  0.77413700  0.20692700  1
  H  123  1  0.69925000  0.83316700  0.15986100  1
  H  134  1  0.50580200  0.43215000  0.20822100  1
  H  135  1  0.16686300  0.35338300  0.17736800  1
  H  136  1  0.16975600  0.42669900  0.21405500  1
  H  138  1  0.69904900  0.32067400  0.15492100  1
  H  149  1  0.50558700  0.77089000  0.55612400  1
  H  150  1  0.16708500  0.81741200  0.63473400  1
  H  151  1  0.16979500  0.78076900  0.56141600  1
  H  153  1  0.69919000  0.82866800  0.66755500  1
  H  164  1  0.50592500  0.20967900  0.77157600  1
  H  165  1  0.16726800  0.17632900  0.81707300  1
  H  166  1  0.17027700  0.21295600  0.78038600  1
  H  168  1  0.69913900  0.15571000  0.82910600  1
  H  179  1  0.50548100  0.55607400  0.77982500  1
  H  180  1  0.16698800  0.63455900  0.81096400  1
  H  181  1  0.16954200  0.56123900  0.77427200  1
  H  183  1  0.69926500  0.66746900  0.83321900  1
  H  194  1  0.50630900  0.21904100  0.43233600  1
  H  195  1  0.16692400  0.16948100  0.35347700  1
  H  196  1  0.16990700  0.20602900  0.42678700  1
  H  198  1  0.69930100  0.16047300  0.32083100  1
  H  209  1  0.39561000  0.81982900  0.95224000  1
  H  210  1  0.78736300  0.79050000  0.03084700  1
  H  211  1  0.78433200  0.75399400  0.95770000  1
  H  213  1  0.22139700  0.85366900  0.06359800  1
  H  224  1  0.39524500  0.12631200  0.16829300  1
  H  225  1  0.78710400  0.23430300  0.19767200  1
  H  226  1  0.78407000  0.19766800  0.23418600  1
  H  228  1  0.22105300  0.20383800  0.13445900  1
  H  239  1  0.39544200  0.03592500  0.86185400  1
  H  240  1  0.78732200  0.95727900  0.75385600  1
  H  241  1  0.78423600  0.03042300  0.79050000  1
  H  243  1  0.22134700  0.92455800  0.78431000  1
  H  254  1  0.39518300  0.16819100  0.03600600  1
  H  255  1  0.78709500  0.19757200  0.95736600  1
  H  256  1  0.78397800  0.23404600  0.03051500  1
  H  258  1  0.22112600  0.13440700  0.92464000  1
  H  269  1  0.39563000  0.86169900  0.81992200  1
  H  270  1  0.78738800  0.75376400  0.79061300  1
  H  271  1  0.78430200  0.79042900  0.75413000  1
  H  273  1  0.22147900  0.78415700  0.85374300  1
  H  284  1  0.39545600  0.95215500  0.12637700  1
  H  285  1  0.78733800  0.03075500  0.23439000  1
  H  286  1  0.78427300  0.95761200  0.19773200  1
  H  288  1  0.22129200  0.06351100  0.20393300  1
  H  299  1  0.46252500  0.73481200  0.32982500  1
  H  300  1  0.82224000  0.78809400  0.42252400  1
  H  301  1  0.82065600  0.78730600  0.35924600  1
  H  303  1  0.27542900  0.75494000  0.43567200  1
  H  314  1  0.46242300  0.58889100  0.25354200  1
  H  315  1  0.82267500  0.62843100  0.19992900  1
  H  316  1  0.82075200  0.56593200  0.20074900  1
  H  318  1  0.27601600  0.67465000  0.23332900  1
  H  329  1  0.46252500  0.65851000  0.39934600  1
  H  330  1  0.82256900  0.56553500  0.35970500  1
  H  331  1  0.82055400  0.62887300  0.42226300  1
  H  333  1  0.27580700  0.55260700  0.31358300  1
  H  344  1  0.46450100  0.25377800  0.65859100  1
  H  345  1  0.82497600  0.19923600  0.56540300  1
  H  346  1  0.82351000  0.20004300  0.62876700  1
  H  348  1  0.27744100  0.23321200  0.55258900  1
  H  359  1  0.46179600  0.39969800  0.73489800  1
  H  360  1  0.82296200  0.35941400  0.78832900  1
  H  361  1  0.82006000  0.42198600  0.78758500  1
  H  363  1  0.27650900  0.31367900  0.75492500  1
  H  374  1  0.46251500  0.33006400  0.58942200  1
  H  375  1  0.82135300  0.42226600  0.62821900  1
  H  376  1  0.82047300  0.35879700  0.56561400  1
  H  378  1  0.27425900  0.43581900  0.67485500  1
  N  115  1  0.71431500  0.77658300  0.21647800  1
  N  118  1  0.70599800  0.81831300  0.17482300  1
  N  130  1  0.71430600  0.43387400  0.21148400  1
  N  133  1  0.70584600  0.35048800  0.16976900  1
  N  145  1  0.71414500  0.77202700  0.55435000  1
  N  148  1  0.70590700  0.81370500  0.63773600  1
  N  160  1  0.71452900  0.21221900  0.77241100  1
  N  163  1  0.70596300  0.17055400  0.81413500  1
  N  175  1  0.71399700  0.55426300  0.77664200  1
  N  178  1  0.70592300  0.63765000  0.81836100  1
  N  190  1  0.71473000  0.21701800  0.43403000  1
  N  193  1  0.70615000  0.17542200  0.35064700  1
  N  205  1  0.20173000  0.79876200  0.95072300  1
  N  208  1  0.21232300  0.83955500  0.03388300  1
  N  220  1  0.20139400  0.14587900  0.18937600  1
  N  223  1  0.21197900  0.18823700  0.14857500  1
  N  235  1  0.20159800  0.03743100  0.84227700  1
  N  238  1  0.21225600  0.95427300  0.79990900  1
  N  250  1  0.20133400  0.18927200  0.03751200  1
  N  253  1  0.21202400  0.14851200  0.95435300  1
  N  265  1  0.20174900  0.84214900  0.79886100  1
  N  268  1  0.21239800  0.79976300  0.83963400  1
  N  280  1  0.20162700  0.95063500  0.14595800  1
  N  283  1  0.21223100  0.03379300  0.18833100  1
  N  295  1  0.26180400  0.75214300  0.33653500  1
  N  298  1  0.26908900  0.75402300  0.40937300  1
  N  310  1  0.26176700  0.57831600  0.23612900  1
  N  313  1  0.26952800  0.64927400  0.23425200  1
  N  325  1  0.26181800  0.65174600  0.40993100  1
  N  328  1  0.26934200  0.57891300  0.33895300  1
  N  340  1  0.26406000  0.23616200  0.65180600  1
  N  343  1  0.27111900  0.23420800  0.57892400  1
  N  355  1  0.26100500  0.41003000  0.75219100  1
  N  358  1  0.26961100  0.33903600  0.75397900  1
  N  370  1  0.26169900  0.33651100  0.57867200  1
  N  373  1  0.26815300  0.40945700  0.64953700  1
  O  122  1  0.46738500  0.81990500  0.17833700  1
  O  137  1  0.46724500  0.35244900  0.16812500  1
  O  152  1  0.46724400  0.81054300  0.63583600  1
  O  167  1  0.46727000  0.16969900  0.81129300  1
  O  182  1  0.46729500  0.63579200  0.81992600  1
  O  197  1  0.46764000  0.17955500  0.35264100  1
  O  212  1  0.43499800  0.86127900  0.03192600  1
  O  227  1  0.43462500  0.16453600  0.12683000  1
  O  242  1  0.43490300  0.95624500  0.82361500  1
  O  257  1  0.43467400  0.12677900  0.95632200  1
  O  272  1  0.43508900  0.82343500  0.86134200  1
  O  287  1  0.43485600  0.03184000  0.16462300  1
  O  302  1  0.49924800  0.73446600  0.39876400  1
  O  317  1  0.49957100  0.65817800  0.25392200  1
  O  332  1  0.49950100  0.58958400  0.33007000  1
  O  347  1  0.50101800  0.25404500  0.58960400  1
  O  362  1  0.49981600  0.33043600  0.73449400  1
  O  377  1  0.49849900  0.39915300  0.65860300  1
