# generated using pymatgen
data_H10C14N3
_symmetry_space_group_name_H-M   'P 1'
_cell_length_a   15.63930000
_cell_length_b   15.63930000
_cell_length_c   62.55690000
_cell_angle_alpha   90.00000000
_cell_angle_beta   90.00000000
_cell_angle_gamma   90.00000000
_symmetry_Int_Tables_number   1
_chemical_formula_structural   H10C14N3
_chemical_formula_sum   'H240 C336 N72'
_cell_volume   15300.64857101
_cell_formula_units_Z   24
loop_
 _symmetry_equiv_pos_site_id
 _symmetry_equiv_pos_as_xyz
  1  'x, y, z'
loop_
 _atom_site_type_symbol
 _atom_site_label
 _atom_site_symmetry_multiplicity
 _atom_site_fract_x
 _atom_site_fract_y
 _atom_site_fract_z
 _atom_site_occupancy
  C  3  1  0.08152100  0.02472700  0.67556200  1
  C  4  1  0.01987300  0.02210000  0.65903800  1
  C  6  1  0.01211100  0.03638300  0.88779100  1
  C  7  1  0.01151100  0.02478500  0.40987900  1
  C  8  1  0.07299000  0.02855800  0.42646600  1
  C  11  1  0.05424100  0.04111600  0.26176300  1
  C  12  1  0.04225500  0.03039300  0.23953500  1
  C  14  1  0.01422800  0.00824500  0.29883700  1
  C  16  1  0.09065900  0.00693300  0.01276000  1
  C  17  1  0.07960800  0.00764900  0.99038100  1
  C  18  1  0.01958500  0.00988700  0.02678600  1
  C  19  1  0.02993200  0.08830600  0.49102600  1
  C  20  1  0.01598100  0.02399100  0.52677400  1
  C  21  1  0.02394100  0.02941000  0.54893800  1
  C  23  1  0.04103300  0.01585200  0.63685000  1
  C  24  1  0.03275900  0.01507900  0.38778900  1
  C  25  1  0.02179400  0.01458800  0.90981600  1
  C  26  1  0.02302000  0.07564000  0.92648600  1
  C  29  1  0.01784200  0.01863300  0.79909300  1
  C  30  1  0.00771600  0.04375200  0.11975500  1
  C  31  1  0.00251400  0.02221500  0.09758500  1
  C  32  1  0.99812200  0.08344500  0.08095400  1
  C  34  1  0.99916100  0.01284700  0.59772100  1
  C  35  1  0.93778000  0.00872300  0.58110100  1
  C  43  1  0.99049300  0.01043600  0.34868600  1
  C  46  1  0.98409900  0.05979300  0.76214200  1
  C  47  1  0.99359400  0.04790100  0.73987600  1
  C  51  1  0.99697700  0.01119100  0.98113200  1
  C  52  1  0.92594100  0.01391500  0.99518300  1
  C  53  1  0.93697100  0.01332000  0.01755000  1
  C  56  1  0.98489500  0.00743100  0.95901700  1
  C  57  1  0.54345900  0.00959300  0.39942300  1
  C  58  1  0.45350700  0.00958000  0.39860500  1
  C  62  1  0.97787500  0.01313500  0.61994900  1
  C  63  1  0.88837500  0.01056900  0.62417900  1
  C  64  1  0.13053100  0.01183800  0.63263300  1
  C  65  1  0.19405900  0.01651200  0.64867300  1
  C  66  1  0.16998600  0.02471000  0.67043200  1
  C  71  1  0.16132700  0.02524700  0.42144000  1
  C  72  1  0.18554800  0.01523800  0.39972400  1
  C  73  1  0.12218800  0.00974500  0.38363900  1
  C  75  1  0.96951400  0.01131800  0.37093600  1
  C  76  1  0.88014600  0.00796800  0.37532200  1
  C  79  1  0.00093800  0.01233000  0.48100800  1
  C  80  1  0.55197100  0.01056600  0.64811400  1
  C  81  1  0.46201800  0.01078800  0.64734800  1
  C  159  1  0.02020700  0.94059300  0.17542600  1
  C  160  1  0.01596100  0.00207300  0.15888200  1
  C  164  1  0.01721500  0.16401300  0.92165600  1
  C  165  1  0.00830700  0.18882500  0.89993500  1
  C  167  1  0.01048900  0.97325500  0.87093500  1
  C  168  1  0.00999000  0.84431000  0.83741100  1
  C  172  1  0.08802200  0.92801000  0.74651000  1
  C  173  1  0.07906000  0.94030900  0.76868400  1
  C  174  1  0.04555900  0.98145500  0.73162800  1
  C  175  1  0.05982400  0.96887500  0.70982100  1
  C  177  1  0.03046900  0.00523500  0.04891100  1
  C  179  1  0.03783500  0.09384200  0.51344700  1
  C  182  1  0.00865200  0.60392400  0.12738800  1
  C  183  1  0.00867200  0.69403500  0.12619600  1
  C  229  1  0.00888300  0.13340200  0.12386300  1
  C  230  1  0.01145300  0.98071000  0.13668100  1
  C  231  1  0.01041800  0.89109000  0.13249800  1
  C  232  1  0.01568100  0.82772400  0.14856800  1
  C  233  1  0.02267400  0.85212700  0.17033100  1
  C  239  1  0.01518800  0.93256900  0.83224700  1
  C  240  1  0.01617400  0.99445500  0.84877100  1
  C  244  1  0.02626700  0.00599900  0.77703600  1
  C  245  1  0.00872300  0.42052600  0.12879400  1
  C  246  1  0.01383400  0.46948500  0.14776300  1
  C  247  1  0.01382700  0.55945100  0.14708300  1
  C  250  1  0.00922900  0.33042000  0.12999200  1
  C  280  1  0.99747300  0.17185800  0.08593800  1
  C  281  1  0.00377400  0.19654300  0.10770700  1
  C  298  1  0.84948900  0.00486700  0.58620700  1
  C  299  1  0.82510900  0.00693900  0.60804800  1
  C  314  1  0.00507200  0.12574200  0.88371300  1
  C  316  1  0.00375800  0.88405900  0.87527900  1
  C  317  1  0.00449000  0.82038300  0.85924600  1
  C  334  1  0.81652100  0.00447100  0.35930100  1
  C  335  1  0.84035200  0.00269000  0.33743300  1
  C  336  1  0.92859200  0.00589300  0.33220100  1
  C  346  1  0.92395600  0.93439100  0.24652300  1
  C  347  1  0.93638000  0.94455800  0.26865900  1
  C  348  1  0.00129600  0.99879600  0.27681700  1
  C  349  1  0.97660500  0.97693800  0.23148000  1
  C  352  1  0.96401200  0.96150900  0.20972100  1
  C  362  1  0.97927200  0.94247000  0.49438200  1
  C  363  1  0.98701500  0.94801100  0.51679800  1
  C  366  1  0.99179100  0.00660700  0.45881100  1
  C  368  1  0.00330100  0.55496800  0.10842300  1
  C  369  1  0.00337800  0.46499100  0.10910100  1
  C  380  1  0.46702000  0.00278900  0.60865500  1
  C  381  1  0.55697700  0.00284000  0.60941800  1
  C  382  1  0.60118600  0.00684300  0.62916900  1
  C  385  1  0.41780900  0.00703500  0.62759300  1
  C  390  1  0.32772200  0.00768400  0.62631400  1
  C  392  1  0.69127200  0.00768100  0.63043700  1
  C  394  1  0.99856900  0.54748200  0.89954400  1
  C  395  1  0.99901000  0.45747100  0.89882400  1
  C  396  1  0.99792700  0.41308800  0.87907400  1
  C  397  1  0.99631200  0.46224700  0.86009600  1
  C  398  1  0.99650400  0.55222700  0.86081600  1
  C  399  1  0.99767700  0.59664500  0.88056300  1
  C  404  1  0.99853100  0.68680300  0.88177100  1
  C  406  1  0.99892700  0.32295000  0.87781500  1
  C  408  1  0.40947000  0.00387300  0.37885300  1
  C  409  1  0.45884100  0.99800300  0.35997100  1
  C  410  1  0.54878100  0.99839000  0.36078300  1
  C  411  1  0.59283400  0.00428900  0.38053000  1
  C  414  1  0.68291500  0.00547100  0.38182700  1
  C  415  1  0.31939700  0.00423400  0.37751500  1
  C  867  1  0.33728700  0.40837500  0.67556200  1
  C  868  1  0.27563900  0.40574800  0.65903800  1
  C  870  1  0.26787700  0.42003100  0.88779100  1
  C  871  1  0.26727700  0.40843300  0.40987900  1
  C  872  1  0.32875600  0.41220600  0.42646600  1
  C  875  1  0.31000700  0.42476400  0.26176300  1
  C  876  1  0.29802100  0.41404100  0.23953500  1
  C  878  1  0.26999400  0.39189300  0.29883700  1
  C  880  1  0.34642500  0.39058100  0.01276000  1
  C  881  1  0.33537400  0.39129700  0.99038100  1
  C  882  1  0.27535100  0.39353500  0.02678600  1
  C  883  1  0.28569800  0.47195400  0.49102600  1
  C  884  1  0.27174700  0.40763900  0.52677400  1
  C  885  1  0.27970700  0.41305800  0.54893800  1
  C  887  1  0.29679900  0.39950000  0.63685000  1
  C  888  1  0.28852500  0.39872700  0.38778900  1
  C  889  1  0.27756000  0.39823600  0.90981600  1
  C  890  1  0.27878600  0.45928800  0.92648600  1
  C  893  1  0.27360800  0.40228100  0.79909300  1
  C  894  1  0.26348200  0.42740000  0.11975500  1
  C  895  1  0.25828000  0.40586300  0.09758500  1
  C  896  1  0.25388800  0.46709300  0.08095400  1
  C  898  1  0.25492700  0.39649500  0.59772100  1
  C  899  1  0.19354600  0.39237100  0.58110100  1
  C  907  1  0.24625900  0.39408400  0.34868600  1
  C  910  1  0.23986500  0.44344100  0.76214200  1
  C  911  1  0.24936000  0.43154900  0.73987600  1
  C  915  1  0.25274300  0.39483900  0.98113200  1
  C  916  1  0.18170700  0.39756300  0.99518300  1
  C  917  1  0.19273700  0.39696800  0.01755000  1
  C  920  1  0.24066100  0.39107900  0.95901700  1
  C  921  1  0.79922500  0.39324100  0.39942300  1
  C  922  1  0.70927300  0.39322800  0.39860500  1
  C  926  1  0.23364100  0.39678300  0.61994900  1
  C  927  1  0.14414100  0.39421700  0.62417900  1
  C  928  1  0.38629700  0.39548600  0.63263300  1
  C  929  1  0.44982500  0.40016000  0.64867300  1
  C  930  1  0.42575200  0.40835800  0.67043200  1
  C  935  1  0.41709300  0.40889500  0.42144000  1
  C  936  1  0.44131400  0.39888600  0.39972400  1
  C  937  1  0.37795400  0.39339300  0.38363900  1
  C  939  1  0.22528000  0.39496600  0.37093600  1
  C  940  1  0.13591200  0.39161600  0.37532200  1
  C  943  1  0.25670400  0.39597800  0.48100800  1
  C  944  1  0.80773700  0.39421400  0.64811400  1
  C  945  1  0.71778400  0.39443600  0.64734800  1
  C  1023  1  0.27597300  0.32424100  0.17542600  1
  C  1024  1  0.27172700  0.38572100  0.15888200  1
  C  1028  1  0.27298100  0.54766100  0.92165600  1
  C  1029  1  0.26407300  0.57247300  0.89993500  1
  C  1031  1  0.26625500  0.35690300  0.87093500  1
  C  1032  1  0.26575600  0.22795800  0.83741100  1
  C  1036  1  0.34378800  0.31165800  0.74651000  1
  C  1037  1  0.33482600  0.32395700  0.76868400  1
  C  1038  1  0.30132500  0.36510300  0.73162800  1
  C  1039  1  0.31559000  0.35252300  0.70982100  1
  C  1041  1  0.28623500  0.38888300  0.04891100  1
  C  1043  1  0.29360100  0.47749000  0.51344700  1
  C  1046  1  0.26441800  0.98757200  0.12738800  1
  C  1047  1  0.26443800  0.07768340  0.12619600  1
  C  1093  1  0.26464900  0.51705000  0.12386300  1
  C  1094  1  0.26721900  0.36435800  0.13668100  1
  C  1095  1  0.26618400  0.27473800  0.13249800  1
  C  1096  1  0.27144700  0.21137200  0.14856800  1
  C  1097  1  0.27844000  0.23577500  0.17033100  1
  C  1103  1  0.27095400  0.31621700  0.83224700  1
  C  1104  1  0.27194000  0.37810300  0.84877100  1
  C  1108  1  0.28203300  0.38964700  0.77703600  1
  C  1109  1  0.26448900  0.80417400  0.12879400  1
  C  1110  1  0.26960000  0.85313300  0.14776300  1
  C  1111  1  0.26959300  0.94309900  0.14708300  1
  C  1114  1  0.26499500  0.71406800  0.12999200  1
  C  1144  1  0.25323900  0.55550600  0.08593800  1
  C  1145  1  0.25954000  0.58019100  0.10770700  1
  C  1162  1  0.10525500  0.38851500  0.58620700  1
  C  1163  1  0.08087500  0.39058700  0.60804800  1
  C  1178  1  0.26083800  0.50939000  0.88371300  1
  C  1180  1  0.25952400  0.26770700  0.87527900  1
  C  1181  1  0.26025600  0.20403100  0.85924600  1
  C  1198  1  0.07228700  0.38811900  0.35930100  1
  C  1199  1  0.09611800  0.38633800  0.33743300  1
  C  1200  1  0.18435800  0.38954100  0.33220100  1
  C  1210  1  0.17972200  0.31803900  0.24652300  1
  C  1211  1  0.19214600  0.32820600  0.26865900  1
  C  1212  1  0.25706200  0.38244400  0.27681700  1
  C  1213  1  0.23237100  0.36058600  0.23148000  1
  C  1216  1  0.21977800  0.34515700  0.20972100  1
  C  1226  1  0.23503800  0.32611800  0.49438200  1
  C  1227  1  0.24278100  0.33165900  0.51679800  1
  C  1230  1  0.24755700  0.39025500  0.45881100  1
  C  1232  1  0.25906700  0.93861600  0.10842300  1
  C  1233  1  0.25914400  0.84863900  0.10910100  1
  C  1244  1  0.72278600  0.38643700  0.60865500  1
  C  1245  1  0.81274300  0.38648800  0.60941800  1
  C  1246  1  0.85695200  0.39049100  0.62916900  1
  C  1249  1  0.67357500  0.39068300  0.62759300  1
  C  1254  1  0.58348800  0.39133200  0.62631400  1
  C  1256  1  0.94703800  0.39132900  0.63043700  1
  C  1258  1  0.25433500  0.93113000  0.89954400  1
  C  1259  1  0.25477600  0.84111900  0.89882400  1
  C  1260  1  0.25369300  0.79673600  0.87907400  1
  C  1261  1  0.25207800  0.84589500  0.86009600  1
  C  1262  1  0.25227000  0.93587500  0.86081600  1
  C  1263  1  0.25344300  0.98029300  0.88056300  1
  C  1268  1  0.25429700  0.07045140  0.88177100  1
  C  1270  1  0.25469300  0.70659800  0.87781500  1
  C  1272  1  0.66523600  0.38752100  0.37885300  1
  C  1273  1  0.71460700  0.38165100  0.35997100  1
  C  1274  1  0.80454700  0.38203800  0.36078300  1
  C  1275  1  0.84860000  0.38793700  0.38053000  1
  C  1278  1  0.93868100  0.38911900  0.38182700  1
  C  1279  1  0.57516300  0.38788200  0.37751500  1
  C  1731  1  0.59305300  0.79202500  0.67556200  1
  C  1732  1  0.53140500  0.78939800  0.65903800  1
  C  1734  1  0.52364300  0.80368100  0.88779100  1
  C  1735  1  0.52304300  0.79208300  0.40987900  1
  C  1736  1  0.58452200  0.79585600  0.42646600  1
  C  1739  1  0.56577300  0.80841400  0.26176300  1
  C  1740  1  0.55378700  0.79769100  0.23953500  1
  C  1742  1  0.52576000  0.77554300  0.29883700  1
  C  1744  1  0.60219100  0.77423100  0.01276000  1
  C  1745  1  0.59114000  0.77494700  0.99038100  1
  C  1746  1  0.53111700  0.77718500  0.02678600  1
  C  1747  1  0.54146400  0.85560400  0.49102600  1
  C  1748  1  0.52751300  0.79128900  0.52677400  1
  C  1749  1  0.53547300  0.79670800  0.54893800  1
  C  1751  1  0.55256500  0.78315000  0.63685000  1
  C  1752  1  0.54429100  0.78237700  0.38778900  1
  C  1753  1  0.53332600  0.78188600  0.90981600  1
  C  1754  1  0.53455200  0.84293800  0.92648600  1
  C  1757  1  0.52937400  0.78593100  0.79909300  1
  C  1758  1  0.51924800  0.81105000  0.11975500  1
  C  1759  1  0.51404600  0.78951300  0.09758500  1
  C  1760  1  0.50965400  0.85074300  0.08095400  1
  C  1762  1  0.51069300  0.78014500  0.59772100  1
  C  1763  1  0.44931200  0.77602100  0.58110100  1
  C  1771  1  0.50202500  0.77773400  0.34868600  1
  C  1774  1  0.49563100  0.82709100  0.76214200  1
  C  1775  1  0.50512600  0.81519900  0.73987600  1
  C  1779  1  0.50850900  0.77848900  0.98113200  1
  C  1780  1  0.43747300  0.78121300  0.99518300  1
  C  1781  1  0.44850300  0.78061800  0.01755000  1
  C  1784  1  0.49642700  0.77472900  0.95901700  1
  C  1785  1  0.05499090  0.77689100  0.39942300  1
  C  1786  1  0.96503900  0.77687800  0.39860500  1
  C  1790  1  0.48940700  0.78043300  0.61994900  1
  C  1791  1  0.39990700  0.77786700  0.62417900  1
  C  1792  1  0.64206300  0.77913600  0.63263300  1
  C  1793  1  0.70559100  0.78381000  0.64867300  1
  C  1794  1  0.68151800  0.79200800  0.67043200  1
  C  1799  1  0.67285900  0.79254500  0.42144000  1
  C  1800  1  0.69708000  0.78253600  0.39972400  1
  C  1801  1  0.63372000  0.77704300  0.38363900  1
  C  1803  1  0.48104600  0.77861600  0.37093600  1
  C  1804  1  0.39167800  0.77526600  0.37532200  1
  C  1807  1  0.51247000  0.77962800  0.48100800  1
  C  1808  1  0.06350290  0.77786400  0.64811400  1
  C  1809  1  0.97355000  0.77808600  0.64734800  1
  C  1887  1  0.53173900  0.70789100  0.17542600  1
  C  1888  1  0.52749300  0.76937100  0.15888200  1
  C  1892  1  0.52874700  0.93131100  0.92165600  1
  C  1893  1  0.51983900  0.95612300  0.89993500  1
  C  1895  1  0.52202100  0.74055300  0.87093500  1
  C  1896  1  0.52152200  0.61160800  0.83741100  1
  C  1900  1  0.59955400  0.69530800  0.74651000  1
  C  1901  1  0.59059200  0.70760700  0.76868400  1
  C  1902  1  0.55709100  0.74875300  0.73162800  1
  C  1903  1  0.57135600  0.73617300  0.70982100  1
  C  1905  1  0.54200100  0.77253300  0.04891100  1
  C  1907  1  0.54936700  0.86114000  0.51344700  1
  C  1910  1  0.52018400  0.37122200  0.12738800  1
  C  1911  1  0.52020400  0.46133300  0.12619600  1
  C  1957  1  0.52041500  0.90070000  0.12386300  1
  C  1958  1  0.52298500  0.74800800  0.13668100  1
  C  1959  1  0.52195000  0.65838800  0.13249800  1
  C  1960  1  0.52721300  0.59502200  0.14856800  1
  C  1961  1  0.53420600  0.61942500  0.17033100  1
  C  1967  1  0.52672000  0.69986700  0.83224700  1
  C  1968  1  0.52770600  0.76175300  0.84877100  1
  C  1972  1  0.53779900  0.77329700  0.77703600  1
  C  1973  1  0.52025500  0.18782390  0.12879400  1
  C  1974  1  0.52536600  0.23678300  0.14776300  1
  C  1975  1  0.52535900  0.32674900  0.14708300  1
  C  1978  1  0.52076100  0.09771790  0.12999200  1
  C  2008  1  0.50900500  0.93915600  0.08593800  1
  C  2009  1  0.51530600  0.96384100  0.10770700  1
  C  2026  1  0.36102100  0.77216500  0.58620700  1
  C  2027  1  0.33664100  0.77423700  0.60804800  1
  C  2042  1  0.51660400  0.89304000  0.88371300  1
  C  2044  1  0.51529000  0.65135700  0.87527900  1
  C  2045  1  0.51602200  0.58768100  0.85924600  1
  C  2062  1  0.32805300  0.77176900  0.35930100  1
  C  2063  1  0.35188400  0.76998800  0.33743300  1
  C  2064  1  0.44012400  0.77319100  0.33220100  1
  C  2074  1  0.43548800  0.70168900  0.24652300  1
  C  2075  1  0.44791200  0.71185600  0.26865900  1
  C  2076  1  0.51282800  0.76609400  0.27681700  1
  C  2077  1  0.48813700  0.74423600  0.23148000  1
  C  2080  1  0.47554400  0.72880700  0.20972100  1
  C  2090  1  0.49080400  0.70976800  0.49438200  1
  C  2091  1  0.49854700  0.71530900  0.51679800  1
  C  2094  1  0.50332300  0.77390500  0.45881100  1
  C  2096  1  0.51483300  0.32226600  0.10842300  1
  C  2097  1  0.51491000  0.23228900  0.10910100  1
  C  2108  1  0.97855200  0.77008700  0.60865500  1
  C  2109  1  0.06850890  0.77013800  0.60941800  1
  C  2110  1  0.11271790  0.77414100  0.62916900  1
  C  2113  1  0.92934100  0.77433300  0.62759300  1
  C  2118  1  0.83925400  0.77498200  0.62631400  1
  C  2120  1  0.20280400  0.77497900  0.63043700  1
  C  2122  1  0.51010100  0.31478000  0.89954400  1
  C  2123  1  0.51054200  0.22476900  0.89882400  1
  C  2124  1  0.50945900  0.18038590  0.87907400  1
  C  2125  1  0.50784400  0.22954500  0.86009600  1
  C  2126  1  0.50803600  0.31952500  0.86081600  1
  C  2127  1  0.50920900  0.36394300  0.88056300  1
  C  2132  1  0.51006300  0.45410100  0.88177100  1
  C  2134  1  0.51045900  0.09024790  0.87781500  1
  C  2136  1  0.92100200  0.77117100  0.37885300  1
  C  2137  1  0.97037300  0.76530100  0.35997100  1
  C  2138  1  0.06031290  0.76568800  0.36078300  1
  C  2139  1  0.10436590  0.77158700  0.38053000  1
  C  2142  1  0.19444690  0.77276900  0.38182700  1
  C  2143  1  0.83092900  0.77153200  0.37751500  1
  H  1  1  0.01563600  0.06403300  0.16380600  1
  H  2  1  0.06107200  0.01552100  0.59287100  1
  H  9  1  0.05231700  0.01383700  0.34376500  1
  H  13  1  0.08225500  0.06196100  0.22926600  1
  H  15  1  0.06331100  0.04306700  0.30394700  1
  H  22  1  0.05951800  0.07635900  0.55496000  1
  H  27  1  0.02505500  0.05611600  0.84407600  1
  H  36  1  0.95797300  0.02553300  0.66394100  1
  H  37  1  0.21516400  0.04316100  0.70092600  1
  H  42  1  0.94978800  0.03260400  0.41458200  1
  H  44  1  0.20616300  0.03734300  0.45220200  1
  H  45  1  0.10255200  0.08030800  0.26686600  1
  H  48  1  0.96218600  0.08849100  0.72972100  1
  H  50  1  0.98335700  0.06781200  0.80430200  1
  H  54  1  0.86492500  0.01550800  0.98924600  1
  H  55  1  0.88367600  0.01402500  0.02706400  1
  H  59  1  0.42073700  0.01385700  0.41270600  1
  H  60  1  0.57252900  0.01406300  0.41405300  1
  H  61  1  0.71183900  0.00990100  0.39644700  1
  H  68  1  0.29114500  0.03499200  0.68289600  1
  H  69  1  0.86661300  0.00968900  0.63943200  1
  H  77  1  0.28241800  0.02879300  0.43421100  1
  H  82  1  0.58117100  0.01355200  0.66275300  1
  H  83  1  0.42937600  0.01373600  0.66149000  1
  H  84  1  0.72017700  0.01096200  0.64507800  1
  H  161  1  0.04125600  0.80756900  0.20087300  1
  H  170  1  0.01608800  0.28437500  0.93482400  1
  H  176  1  0.08407200  0.91277200  0.70521700  1
  H  178  1  0.08748100  0.98686100  0.05427000  1
  H  180  1  0.04540800  0.14083800  0.48205400  1
  H  181  1  0.05888500  0.15009000  0.51997300  1
  H  235  1  0.03574500  0.73132900  0.18284100  1
  H  236  1  0.01339200  0.15543200  0.13904500  1
  H  238  1  0.03210700  0.95292100  0.91435300  1
  H  241  1  0.01355000  0.79819600  0.80660900  1
  H  242  1  0.02578900  0.20727900  0.95259600  1
  H  248  1  0.01774400  0.44008000  0.16236100  1
  H  249  1  0.01764800  0.59190900  0.16123900  1
  H  251  1  0.01334700  0.30142700  0.14460700  1
  H  283  1  0.00026100  0.96025500  0.09274700  1
  H  291  1  0.99142700  0.29260000  0.07304000  1
  H  292  1  0.98824300  0.21584800  0.05505100  1
  H  294  1  0.00624900  0.86909100  0.11731400  1
  H  307  1  0.72843900  0.99743400  0.57349200  1
  H  308  1  0.80446200  0.99928500  0.55533200  1
  H  310  1  0.15219000  0.00427300  0.61748700  1
  H  320  1  0.00677900  0.72279600  0.82483300  1
  H  323  1  0.99499500  0.14700200  0.86858600  1
  H  324  1  0.99541700  0.86315100  0.89049800  1
  H  338  1  0.71878700  0.99598900  0.32496300  1
  H  339  1  0.79408100  0.99787200  0.30665200  1
  H  341  1  0.14370900  0.00021900  0.36853600  1
  H  342  1  0.85875100  0.00579500  0.39060600  1
  H  350  1  0.89746100  0.91096600  0.27879600  1
  H  351  1  0.87659400  0.89376600  0.24151900  1
  H  353  1  0.90848800  0.93577900  0.20519200  1
  H  355  1  0.94588500  0.10863800  0.76739000  1
  H  356  1  0.11236500  0.90064300  0.77869900  1
  H  357  1  0.12757600  0.88000200  0.74136000  1
  H  358  1  0.13278200  0.00394000  0.98087400  1
  H  359  1  0.15154200  0.00342200  0.01872700  1
  H  360  1  0.92561200  0.99731600  0.95377600  1
  H  364  1  0.95793700  0.88624300  0.48789800  1
  H  365  1  0.97120500  0.89564900  0.52580600  1
  H  367  1  0.96193100  0.95530600  0.45306100  1
  H  374  1  0.99957600  0.43251500  0.09494600  1
  H  375  1  0.99945200  0.58437600  0.09382400  1
  H  377  1  0.00440700  0.72310300  0.11159400  1
  H  387  1  0.58963100  0.00004300  0.59527500  1
  H  388  1  0.43782100  0.00004600  0.59401400  1
  H  391  1  0.29874800  0.00458000  0.61168000  1
  H  400  1  0.99565300  0.43296800  0.84545100  1
  H  401  1  0.00002700  0.42487900  0.91299400  1
  H  402  1  0.99957300  0.57678500  0.91418500  1
  H  403  1  0.99570500  0.58476000  0.84664000  1
  H  405  1  0.99949600  0.71590300  0.89640900  1
  H  407  1  0.99801900  0.29407500  0.86315000  1
  H  412  1  0.42977800  0.99383100  0.34533500  1
  H  413  1  0.58152500  0.99429800  0.34667800  1
  H  416  1  0.29055300  0.00004000  0.36288200  1
  H  865  1  0.27140200  0.44768100  0.16380600  1
  H  866  1  0.31683800  0.39916900  0.59287100  1
  H  873  1  0.30808300  0.39748500  0.34376500  1
  H  877  1  0.33802100  0.44560900  0.22926600  1
  H  879  1  0.31907700  0.42671500  0.30394700  1
  H  886  1  0.31528400  0.46000700  0.55496000  1
  H  891  1  0.28082100  0.43976400  0.84407600  1
  H  900  1  0.21373900  0.40918100  0.66394100  1
  H  901  1  0.47093000  0.42680900  0.70092600  1
  H  906  1  0.20555400  0.41625200  0.41458200  1
  H  908  1  0.46192900  0.42099100  0.45220200  1
  H  909  1  0.35831800  0.46395600  0.26686600  1
  H  912  1  0.21795200  0.47213900  0.72972100  1
  H  914  1  0.23912300  0.45146000  0.80430200  1
  H  918  1  0.12069100  0.39915600  0.98924600  1
  H  919  1  0.13944200  0.39767300  0.02706400  1
  H  923  1  0.67650300  0.39750500  0.41270600  1
  H  924  1  0.82829500  0.39771100  0.41405300  1
  H  925  1  0.96760500  0.39354900  0.39644700  1
  H  932  1  0.54691100  0.41864000  0.68289600  1
  H  933  1  0.12237900  0.39333700  0.63943200  1
  H  941  1  0.53818400  0.41244100  0.43421100  1
  H  946  1  0.83693700  0.39720000  0.66275300  1
  H  947  1  0.68514200  0.39738400  0.66149000  1
  H  948  1  0.97594300  0.39461000  0.64507800  1
  H  1025  1  0.29702200  0.19121740  0.20087300  1
  H  1034  1  0.27185400  0.66802300  0.93482400  1
  H  1040  1  0.33983800  0.29642000  0.70521700  1
  H  1042  1  0.34324700  0.37050900  0.05427000  1
  H  1044  1  0.30117400  0.52448600  0.48205400  1
  H  1045  1  0.31465100  0.53373800  0.51997300  1
  H  1099  1  0.29151100  0.11497740  0.18284100  1
  H  1100  1  0.26915800  0.53908000  0.13904500  1
  H  1102  1  0.28787300  0.33656900  0.91435300  1
  H  1105  1  0.26931600  0.18184440  0.80660900  1
  H  1106  1  0.28155500  0.59092700  0.95259600  1
  H  1112  1  0.27351000  0.82372800  0.16236100  1
  H  1113  1  0.27341400  0.97555700  0.16123900  1
  H  1115  1  0.26911300  0.68507500  0.14460700  1
  H  1147  1  0.25602700  0.34390300  0.09274700  1
  H  1155  1  0.24719300  0.67624800  0.07304000  1
  H  1156  1  0.24400900  0.59949600  0.05505100  1
  H  1158  1  0.26201500  0.25273900  0.11731400  1
  H  1171  1  0.98420500  0.38108200  0.57349200  1
  H  1172  1  0.06022800  0.38293300  0.55533200  1
  H  1174  1  0.40795600  0.38792100  0.61748700  1
  H  1184  1  0.26254500  0.10644440  0.82483300  1
  H  1187  1  0.25076100  0.53065000  0.86858600  1
  H  1188  1  0.25118300  0.24679900  0.89049800  1
  H  1202  1  0.97455300  0.37963700  0.32496300  1
  H  1203  1  0.04984700  0.38152000  0.30665200  1
  H  1205  1  0.39947500  0.38386700  0.36853600  1
  H  1206  1  0.11451700  0.38944300  0.39060600  1
  H  1214  1  0.15322700  0.29461400  0.27879600  1
  H  1215  1  0.13236000  0.27741400  0.24151900  1
  H  1217  1  0.16425400  0.31942700  0.20519200  1
  H  1219  1  0.20165100  0.49228600  0.76739000  1
  H  1220  1  0.36813100  0.28429100  0.77869900  1
  H  1221  1  0.38334200  0.26365000  0.74136000  1
  H  1222  1  0.38854800  0.38758800  0.98087400  1
  H  1223  1  0.40730800  0.38707000  0.01872700  1
  H  1224  1  0.18137800  0.38096400  0.95377600  1
  H  1228  1  0.21370300  0.26989100  0.48789800  1
  H  1229  1  0.22697100  0.27929700  0.52580600  1
  H  1231  1  0.21769700  0.33895400  0.45306100  1
  H  1238  1  0.25534200  0.81616300  0.09494600  1
  H  1239  1  0.25521800  0.96802400  0.09382400  1
  H  1241  1  0.26017300  0.10675140  0.11159400  1
  H  1251  1  0.84539700  0.38369100  0.59527500  1
  H  1252  1  0.69358700  0.38369400  0.59401400  1
  H  1255  1  0.55451400  0.38822800  0.61168000  1
  H  1264  1  0.25141900  0.81661600  0.84545100  1
  H  1265  1  0.25579300  0.80852700  0.91299400  1
  H  1266  1  0.25533900  0.96043300  0.91418500  1
  H  1267  1  0.25147100  0.96840800  0.84664000  1
  H  1269  1  0.25526200  0.09955140  0.89640900  1
  H  1271  1  0.25378500  0.67772300  0.86315000  1
  H  1276  1  0.68554400  0.37747900  0.34533500  1
  H  1277  1  0.83729100  0.37794600  0.34667800  1
  H  1280  1  0.54631900  0.38368800  0.36288200  1
  H  1729  1  0.52716800  0.83133100  0.16380600  1
  H  1730  1  0.57260400  0.78281900  0.59287100  1
  H  1737  1  0.56384900  0.78113500  0.34376500  1
  H  1741  1  0.59378700  0.82925900  0.22926600  1
  H  1743  1  0.57484300  0.81036500  0.30394700  1
  H  1750  1  0.57105000  0.84365700  0.55496000  1
  H  1755  1  0.53658700  0.82341400  0.84407600  1
  H  1764  1  0.46950500  0.79283100  0.66394100  1
  H  1765  1  0.72669600  0.81045900  0.70092600  1
  H  1770  1  0.46132000  0.79990200  0.41458200  1
  H  1772  1  0.71769500  0.80464100  0.45220200  1
  H  1773  1  0.61408400  0.84760600  0.26686600  1
  H  1776  1  0.47371800  0.85578900  0.72972100  1
  H  1778  1  0.49488900  0.83511000  0.80430200  1
  H  1782  1  0.37645700  0.78280600  0.98924600  1
  H  1783  1  0.39520800  0.78132300  0.02706400  1
  H  1787  1  0.93226900  0.78115500  0.41270600  1
  H  1788  1  0.08406090  0.78136100  0.41405300  1
  H  1789  1  0.22337100  0.77719900  0.39644700  1
  H  1796  1  0.80267700  0.80229000  0.68289600  1
  H  1797  1  0.37814500  0.77698700  0.63943200  1
  H  1805  1  0.79395000  0.79609100  0.43421100  1
  H  1810  1  0.09270290  0.78085000  0.66275300  1
  H  1811  1  0.94090800  0.78103400  0.66149000  1
  H  1812  1  0.23170900  0.77826000  0.64507800  1
  H  1889  1  0.55278800  0.57486700  0.20087300  1
  H  1898  1  0.52762000  0.05167290  0.93482400  1
  H  1904  1  0.59560400  0.68007000  0.70521700  1
  H  1906  1  0.59901300  0.75415900  0.05427000  1
  H  1908  1  0.55694000  0.90813600  0.48205400  1
  H  1909  1  0.57041700  0.91738800  0.51997300  1
  H  1963  1  0.54727700  0.49862700  0.18284100  1
  H  1964  1  0.52492400  0.92273000  0.13904500  1
  H  1966  1  0.54363900  0.72021900  0.91435300  1
  H  1969  1  0.52508200  0.56549400  0.80660900  1
  H  1970  1  0.53732100  0.97457700  0.95259600  1
  H  1976  1  0.52927600  0.20737800  0.16236100  1
  H  1977  1  0.52918000  0.35920700  0.16123900  1
  H  1979  1  0.52487900  0.06872490  0.14460700  1
  H  2011  1  0.51179300  0.72755300  0.09274700  1
  H  2019  1  0.50295900  0.05989790  0.07304000  1
  H  2020  1  0.49977500  0.98314600  0.05505100  1
  H  2022  1  0.51778100  0.63638900  0.11731400  1
  H  2035  1  0.23997100  0.76473200  0.57349200  1
  H  2036  1  0.31599400  0.76658300  0.55533200  1
  H  2038  1  0.66372200  0.77157100  0.61748700  1
  H  2048  1  0.51831100  0.49009400  0.82483300  1
  H  2051  1  0.50652700  0.91430000  0.86858600  1
  H  2052  1  0.50694900  0.63044900  0.89049800  1
  H  2066  1  0.23031900  0.76328700  0.32496300  1
  H  2067  1  0.30561300  0.76517000  0.30665200  1
  H  2069  1  0.65524100  0.76751700  0.36853600  1
  H  2070  1  0.37028300  0.77309300  0.39060600  1
  H  2078  1  0.40899300  0.67826400  0.27879600  1
  H  2079  1  0.38812600  0.66106400  0.24151900  1
  H  2081  1  0.42002000  0.70307700  0.20519200  1
  H  2083  1  0.45741700  0.87593600  0.76739000  1
  H  2084  1  0.62389700  0.66794100  0.77869900  1
  H  2085  1  0.63910800  0.64730000  0.74136000  1
  H  2086  1  0.64431400  0.77123800  0.98087400  1
  H  2087  1  0.66307400  0.77072000  0.01872700  1
  H  2088  1  0.43714400  0.76461400  0.95377600  1
  H  2092  1  0.46946900  0.65354100  0.48789800  1
  H  2093  1  0.48273700  0.66294700  0.52580600  1
  H  2095  1  0.47346300  0.72260400  0.45306100  1
  H  2102  1  0.51110800  0.19981290  0.09494600  1
  H  2103  1  0.51098400  0.35167400  0.09382400  1
  H  2105  1  0.51593900  0.49040100  0.11159400  1
  H  2115  1  0.10116290  0.76734100  0.59527500  1
  H  2116  1  0.94935300  0.76734400  0.59401400  1
  H  2119  1  0.81028000  0.77187800  0.61168000  1
  H  2128  1  0.50718500  0.20026600  0.84545100  1
  H  2129  1  0.51155900  0.19217690  0.91299400  1
  H  2130  1  0.51110500  0.34408300  0.91418500  1
  H  2131  1  0.50723700  0.35205800  0.84664000  1
  H  2133  1  0.51102800  0.48320100  0.89640900  1
  H  2135  1  0.50955100  0.06137290  0.86315000  1
  H  2140  1  0.94131000  0.76112900  0.34533500  1
  H  2141  1  0.09305690  0.76159600  0.34667800  1
  H  2144  1  0.80208500  0.76733800  0.36288200  1
  N  5  1  0.05586500  0.02976800  0.69594500  1
  N  10  1  0.05023400  0.04067300  0.44682500  1
  N  28  1  0.03581600  0.05049000  0.94662700  1
  N  33  1  0.98863600  0.05951900  0.06059100  1
  N  67  1  0.23042700  0.03315600  0.68609300  1
  N  70  1  0.27876000  0.01375000  0.64403200  1
  N  74  1  0.22157200  0.03098900  0.43723400  1
  N  78  1  0.27028300  0.01178600  0.39517000  1
  N  162  1  0.02457500  0.96664300  0.19578500  1
  N  166  1  0.02022100  0.22346500  0.93765800  1
  N  169  1  0.01046800  0.78346300  0.82167700  1
  N  234  1  0.03216300  0.79199000  0.18602400  1
  N  237  1  0.01427200  0.74294400  0.14394400  1
  N  243  1  0.02363900  0.95318000  0.81168100  1
  N  284  1  0.99181400  0.23167600  0.07005100  1
  N  296  1  0.00454100  0.28140100  0.11224800  1
  N  301  1  0.78920200  0.00020900  0.57039100  1
  N  312  1  0.74034800  0.00581100  0.61267500  1
  N  313  1  0.95998700  0.00436200  0.56050400  1
  N  326  1  0.00139500  0.73572500  0.86398100  1
  N  327  1  0.00443900  0.27372300  0.89551400  1
  N  337  1  0.77946100  0.99835200  0.32174400  1
  N  343  1  0.94934400  0.00142700  0.31156400  1
  N  344  1  0.73190100  0.00320800  0.36406000  1
  N  869  1  0.31163100  0.41341600  0.69594500  1
  N  874  1  0.30600000  0.42432100  0.44682500  1
  N  892  1  0.29158200  0.43413800  0.94662700  1
  N  897  1  0.24440200  0.44316700  0.06059100  1
  N  931  1  0.48619300  0.41680400  0.68609300  1
  N  934  1  0.53452600  0.39739800  0.64403200  1
  N  938  1  0.47733800  0.41463700  0.43723400  1
  N  942  1  0.52604900  0.39543400  0.39517000  1
  N  1026  1  0.28034100  0.35029100  0.19578500  1
  N  1030  1  0.27598700  0.60711300  0.93765800  1
  N  1033  1  0.26623400  0.16711140  0.82167700  1
  N  1098  1  0.28792900  0.17563840  0.18602400  1
  N  1101  1  0.27003800  0.12659240  0.14394400  1
  N  1107  1  0.27940500  0.33682800  0.81168100  1
  N  1148  1  0.24758000  0.61532400  0.07005100  1
  N  1160  1  0.26030700  0.66504900  0.11224800  1
  N  1165  1  0.04496800  0.38385700  0.57039100  1
  N  1176  1  0.99611400  0.38945900  0.61267500  1
  N  1177  1  0.21575300  0.38801000  0.56050400  1
  N  1190  1  0.25716100  0.11937340  0.86398100  1
  N  1191  1  0.26020500  0.65737100  0.89551400  1
  N  1201  1  0.03522700  0.38200000  0.32174400  1
  N  1207  1  0.20511000  0.38507500  0.31156400  1
  N  1208  1  0.98766700  0.38685600  0.36406000  1
  N  1733  1  0.56739700  0.79706600  0.69594500  1
  N  1738  1  0.56176600  0.80797100  0.44682500  1
  N  1756  1  0.54734800  0.81778800  0.94662700  1
  N  1761  1  0.50016800  0.82681700  0.06059100  1
  N  1795  1  0.74195900  0.80045400  0.68609300  1
  N  1798  1  0.79029200  0.78104800  0.64403200  1
  N  1802  1  0.73310400  0.79828700  0.43723400  1
  N  1806  1  0.78181500  0.77908400  0.39517000  1
  N  1890  1  0.53610700  0.73394100  0.19578500  1
  N  1894  1  0.53175300  0.99076300  0.93765800  1
  N  1897  1  0.52200000  0.55076100  0.82167700  1
  N  1962  1  0.54369500  0.55928800  0.18602400  1
  N  1965  1  0.52580400  0.51024200  0.14394400  1
  N  1971  1  0.53517100  0.72047800  0.81168100  1
  N  2012  1  0.50334600  0.99897400  0.07005100  1
  N  2024  1  0.51607300  0.04869890  0.11224800  1
  N  2029  1  0.30073400  0.76750700  0.57039100  1
  N  2040  1  0.25188000  0.77310900  0.61267500  1
  N  2041  1  0.47151900  0.77166000  0.56050400  1
  N  2054  1  0.51292700  0.50302300  0.86398100  1
  N  2055  1  0.51597100  0.04102090  0.89551400  1
  N  2065  1  0.29099300  0.76565000  0.32174400  1
  N  2071  1  0.46087600  0.76872500  0.31156400  1
  N  2072  1  0.24343300  0.77050600  0.36406000  1
