# generated using pymatgen
data_MnH9C14NO5
_symmetry_space_group_name_H-M   'P 1'
_cell_length_a   14.81723000
_cell_length_b   15.83671000
_cell_length_c   16.32392000
_cell_angle_alpha   89.99953000
_cell_angle_beta   101.83601000
_cell_angle_gamma   90.00000000
_symmetry_Int_Tables_number   1
_chemical_formula_structural   MnH9C14NO5
_chemical_formula_sum   'Mn8 H72 C112 N8 O40'
_cell_volume   3749.06691647
_cell_formula_units_Z   8
loop_
 _symmetry_equiv_pos_site_id
 _symmetry_equiv_pos_as_xyz
  1  'x, y, z'
loop_
 _atom_site_type_symbol
 _atom_site_label
 _atom_site_symmetry_multiplicity
 _atom_site_fract_x
 _atom_site_fract_y
 _atom_site_fract_z
 _atom_site_occupancy
  Mn  Mn1  1  0.28431000  0.89613000  0.04651000  1.0
  Mn  Mn2  1  0.24414000  0.63129000  0.95401000  1.0
  Mn  Mn3  1  0.21569000  0.39614000  0.45350000  1.0
  Mn  Mn4  1  0.25587000  0.13129000  0.54599000  1.0
  Mn  Mn5  1  0.71569000  0.10387000  0.95350000  1.0
  Mn  Mn6  1  0.75586000  0.36871000  0.04599000  1.0
  Mn  Mn7  1  0.78431000  0.60386000  0.54650000  1.0
  Mn  Mn8  1  0.74413000  0.86871000  0.45402000  1.0
  H  H1  1  0.94437000  0.47680000  0.61738000  1.0
  H  H2  1  0.11638000  0.47820000  0.65313000  1.0
  H  H3  1  0.10630000  0.72453000  0.53806000  1.0
  H  H4  1  0.93487000  0.71420000  0.50876000  1.0
  H  H5  1  0.25419000  0.59109000  0.68899000  1.0
  H  H6  1  0.25900000  0.56134000  0.58464000  1.0
  H  H7  1  0.26730000  0.68819000  0.77050000  1.0
  H  H8  1  0.22528000  0.95601000  0.78144000  1.0
  H  H9  1  0.24297000  0.83946000  0.54642000  1.0
  H  H10  1  0.24648000  0.06647000  0.28757000  1.0
  H  H11  1  0.22758000  0.33618000  0.26289000  1.0
  H  H12  1  0.24213000  0.18186000  0.04733000  1.0
  H  H13  1  0.22265000  0.46007000  0.07488000  1.0
  H  H14  1  0.22948000  0.43257000  0.18232000  1.0
  H  H15  1  0.08251000  0.45228000  0.22422000  1.0
  H  H16  1  0.91058000  0.42966000  0.19331000  1.0
  H  H17  1  0.91300000  0.34383000  0.95390000  1.0
  H  H18  1  0.08389000  0.36124000  0.97560000  1.0
  H  H19  1  0.55563000  0.97679000  0.88262000  1.0
  H  H20  1  0.38363000  0.97820000  0.84687000  1.0
  H  H21  1  0.39370000  0.22453000  0.96194000  1.0
  H  H22  1  0.56513000  0.21420000  0.99124000  1.0
  H  H23  1  0.24581000  0.09109000  0.81101000  1.0
  H  H24  1  0.24100000  0.06134000  0.91537000  1.0
  H  H25  1  0.23270000  0.18819000  0.72951000  1.0
  H  H26  1  0.27472000  0.45601000  0.71856000  1.0
  H  H27  1  0.25703000  0.33946000  0.95358000  1.0
  H  H28  1  0.25352000  0.56647000  0.21243000  1.0
  H  H29  1  0.27242000  0.83618000  0.23712000  1.0
  H  H30  1  0.25787000  0.68186000  0.45267000  1.0
  H  H31  1  0.27735000  0.96007000  0.42512000  1.0
  H  H32  1  0.27052000  0.93257000  0.31768000  1.0
  H  H33  1  0.41749000  0.95228000  0.27578000  1.0
  H  H34  1  0.58942000  0.92966000  0.30670000  1.0
  H  H35  1  0.58700000  0.84383000  0.54610000  1.0
  H  H36  1  0.41611000  0.86124000  0.52440000  1.0
  H  H37  1  0.05563000  0.52320000  0.38262000  1.0
  H  H38  1  0.88362000  0.52180000  0.34687000  1.0
  H  H39  1  0.89370000  0.27547000  0.46194000  1.0
  H  H40  1  0.06513000  0.28580000  0.49124000  1.0
  H  H41  1  0.74581000  0.40891000  0.31101000  1.0
  H  H42  1  0.74100000  0.43866000  0.41536000  1.0
  H  H43  1  0.73270000  0.31181000  0.22951000  1.0
  H  H44  1  0.77472000  0.04399000  0.21856000  1.0
  H  H45  1  0.75703000  0.16054000  0.45358000  1.0
  H  H46  1  0.75352000  0.93353000  0.71243000  1.0
  H  H47  1  0.77242000  0.66382000  0.73711000  1.0
  H  H48  1  0.75787000  0.81814000  0.95267000  1.0
  H  H49  1  0.77735000  0.53993000  0.92512000  1.0
  H  H50  1  0.77052000  0.56743000  0.81768000  1.0
  H  H51  1  0.91749000  0.54772000  0.77578000  1.0
  H  H52  1  0.08942000  0.57034000  0.80670000  1.0
  H  H53  1  0.08699000  0.65617000  0.04610000  1.0
  H  H54  1  0.91610000  0.63876000  0.02440000  1.0
  H  H55  1  0.44436000  0.02321000  0.11738000  1.0
  H  H56  1  0.61637000  0.02180000  0.15313000  1.0
  H  H57  1  0.60630000  0.77547000  0.03806000  1.0
  H  H58  1  0.43487000  0.78580000  0.00877000  1.0
  H  H59  1  0.75419000  0.90891000  0.18899000  1.0
  H  H60  1  0.75899000  0.93866000  0.08464000  1.0
  H  H61  1  0.76730000  0.81181000  0.27050000  1.0
  H  H62  1  0.72528000  0.54399000  0.28144000  1.0
  H  H63  1  0.74297000  0.66054000  0.04642000  1.0
  H  H64  1  0.74648000  0.43353000  0.78757000  1.0
  H  H65  1  0.72758000  0.16382000  0.76289000  1.0
  H  H66  1  0.74213000  0.31814000  0.54733000  1.0
  H  H67  1  0.72265000  0.03993000  0.57488000  1.0
  H  H68  1  0.72948000  0.06743000  0.68232000  1.0
  H  H69  1  0.58251000  0.04772000  0.72422000  1.0
  H  H70  1  0.41058000  0.07034000  0.69330000  1.0
  H  H71  1  0.41300000  0.15617000  0.45390000  1.0
  H  H72  1  0.58389000  0.13876000  0.47560000  1.0
  C  C1  1  0.98307000  0.53087000  0.60187000  1.0
  C  C2  1  0.07885000  0.53207000  0.62146000  1.0
  C  C3  1  0.12606000  0.60302000  0.60016000  1.0
  C  C4  1  0.07336000  0.66878000  0.55736000  1.0
  C  C5  1  0.97773000  0.66335000  0.54070000  1.0
  C  C6  1  0.22985000  0.60717000  0.62257000  1.0
  C  C7  1  0.25386000  0.75555000  0.65251000  1.0
  C  C8  1  0.25657000  0.74856000  0.73830000  1.0
  C  C9  1  0.24705000  0.82147000  0.78467000  1.0
  C  C10  1  0.23462000  0.90035000  0.74539000  1.0
  C  C11  1  0.23502000  0.90714000  0.65995000  1.0
  C  C12  1  0.24386000  0.83457000  0.61317000  1.0
  C  C13  1  0.23114000  0.99164000  0.61901000  1.0
  C  C14  1  0.25727000  0.81543000  0.87743000  1.0
  C  C15  1  0.25629000  0.03087000  0.12685000  1.0
  C  C16  1  0.24611000  0.11526000  0.16372000  1.0
  C  C17  1  0.24324000  0.12230000  0.24859000  1.0
  C  C18  1  0.23569000  0.20199000  0.28311000  1.0
  C  C19  1  0.23178000  0.27510000  0.23358000  1.0
  C  C20  1  0.23546000  0.26735000  0.14897000  1.0
  C  C21  1  0.24128000  0.18748000  0.11361000  1.0
  C  C22  1  0.23560000  0.20999000  0.37418000  1.0
  C  C23  1  0.20029000  0.41453000  0.11741000  1.0
  C  C24  1  0.09660000  0.40876000  0.10194000  1.0
  C  C25  1  0.04674000  0.42889000  0.16337000  1.0
  C  C26  1  0.95169000  0.41614000  0.14671000  1.0
  C  C27  1  0.95301000  0.36751000  0.01283000  1.0
  C  C28  1  0.04774000  0.37820000  0.02494000  1.0
  C  C29  1  0.51693000  0.03087000  0.89813000  1.0
  C  C30  1  0.42115000  0.03207000  0.87854000  1.0
  C  C31  1  0.37394000  0.10302000  0.89984000  1.0
  C  C32  1  0.42664000  0.16878000  0.94264000  1.0
  C  C33  1  0.52227000  0.16335000  0.95930000  1.0
  C  C34  1  0.27016000  0.10717000  0.87743000  1.0
  C  C35  1  0.24614000  0.25555000  0.84749000  1.0
  C  C36  1  0.24344000  0.24856000  0.76170000  1.0
  C  C37  1  0.25295000  0.32147000  0.71533000  1.0
  C  C38  1  0.26538000  0.40035000  0.75461000  1.0
  C  C39  1  0.26498000  0.40714000  0.84005000  1.0
  C  C40  1  0.25614000  0.33457000  0.88683000  1.0
  C  C41  1  0.26886000  0.49164000  0.88099000  1.0
  C  C42  1  0.24274000  0.31544000  0.62257000  1.0
  C  C43  1  0.24371000  0.53087000  0.37316000  1.0
  C  C44  1  0.25388000  0.61525000  0.33629000  1.0
  C  C45  1  0.25675000  0.62230000  0.25141000  1.0
  C  C46  1  0.26431000  0.70199000  0.21690000  1.0
  C  C47  1  0.26822000  0.77510000  0.26642000  1.0
  C  C48  1  0.26454000  0.76735000  0.35103000  1.0
  C  C49  1  0.25872000  0.68748000  0.38640000  1.0
  C  C50  1  0.26440000  0.70999000  0.12583000  1.0
  C  C51  1  0.29971000  0.91453000  0.38260000  1.0
  C  C52  1  0.40340000  0.90875000  0.39807000  1.0
  C  C53  1  0.45326000  0.92889000  0.33664000  1.0
  C  C54  1  0.54830000  0.91614000  0.35329000  1.0
  C  C55  1  0.54698000  0.86750000  0.48717000  1.0
  C  C56  1  0.45226000  0.87820000  0.47506000  1.0
  C  C57  1  0.01692000  0.46913000  0.39813000  1.0
  C  C58  1  0.92115000  0.46793000  0.37854000  1.0
  C  C59  1  0.87394000  0.39698000  0.39984000  1.0
  C  C60  1  0.92664000  0.33122000  0.44264000  1.0
  C  C61  1  0.02227000  0.33665000  0.45931000  1.0
  C  C62  1  0.77015000  0.39283000  0.37743000  1.0
  C  C63  1  0.74614000  0.24445000  0.34749000  1.0
  C  C64  1  0.74343000  0.25144000  0.26170000  1.0
  C  C65  1  0.75295000  0.17853000  0.21533000  1.0
  C  C66  1  0.76538000  0.09965000  0.25461000  1.0
  C  C67  1  0.76498000  0.09286000  0.34006000  1.0
  C  C68  1  0.75614000  0.16543000  0.38683000  1.0
  C  C69  1  0.76886000  0.00836000  0.38099000  1.0
  C  C70  1  0.74273000  0.18457000  0.12257000  1.0
  C  C71  1  0.74371000  0.96913000  0.87315000  1.0
  C  C72  1  0.75389000  0.88474000  0.83628000  1.0
  C  C73  1  0.75675000  0.87770000  0.75141000  1.0
  C  C74  1  0.76431000  0.79801000  0.71690000  1.0
  C  C75  1  0.76822000  0.72490000  0.76642000  1.0
  C  C76  1  0.76454000  0.73265000  0.85103000  1.0
  C  C77  1  0.75872000  0.81252000  0.88639000  1.0
  C  C78  1  0.76440000  0.79001000  0.62582000  1.0
  C  C79  1  0.79971000  0.58547000  0.88260000  1.0
  C  C80  1  0.90340000  0.59124000  0.89807000  1.0
  C  C81  1  0.95326000  0.57111000  0.83664000  1.0
  C  C82  1  0.04831000  0.58386000  0.85329000  1.0
  C  C83  1  0.04698000  0.63249000  0.98717000  1.0
  C  C84  1  0.95226000  0.62180000  0.97506000  1.0
  C  C85  1  0.48307000  0.96913000  0.10187000  1.0
  C  C86  1  0.57884000  0.96793000  0.12146000  1.0
  C  C87  1  0.62606000  0.89698000  0.10016000  1.0
  C  C88  1  0.57336000  0.83122000  0.05736000  1.0
  C  C89  1  0.47773000  0.83665000  0.04070000  1.0
  C  C90  1  0.72984000  0.89283000  0.12257000  1.0
  C  C91  1  0.75385000  0.74445000  0.15251000  1.0
  C  C92  1  0.75656000  0.75144000  0.23830000  1.0
  C  C93  1  0.74705000  0.67853000  0.28467000  1.0
  C  C94  1  0.73462000  0.59965000  0.24540000  1.0
  C  C95  1  0.73502000  0.59286000  0.15995000  1.0
  C  C96  1  0.74386000  0.66543000  0.11317000  1.0
  C  C97  1  0.73114000  0.50836000  0.11901000  1.0
  C  C98  1  0.75726000  0.68457000  0.37743000  1.0
  C  C99  1  0.75629000  0.46913000  0.62684000  1.0
  C  C100  1  0.74611000  0.38475000  0.66372000  1.0
  C  C101  1  0.74325000  0.37770000  0.74859000  1.0
  C  C102  1  0.73569000  0.29801000  0.78310000  1.0
  C  C103  1  0.73178000  0.22490000  0.73358000  1.0
  C  C104  1  0.73546000  0.23265000  0.64897000  1.0
  C  C105  1  0.74128000  0.31252000  0.61361000  1.0
  C  C106  1  0.73560000  0.29001000  0.87417000  1.0
  C  C107  1  0.70029000  0.08547000  0.61741000  1.0
  C  C108  1  0.59660000  0.09125000  0.60194000  1.0
  C  C109  1  0.54674000  0.07111000  0.66337000  1.0
  C  C110  1  0.45169000  0.08386000  0.64671000  1.0
  C  C111  1  0.45302000  0.13250000  0.51283000  1.0
  C  C112  1  0.54774000  0.12180000  0.52494000  1.0
  N  N1  1  0.93232000  0.59599000  0.56319000  1.0
  N  N2  1  0.90483000  0.38527000  0.07284000  1.0
  N  N3  1  0.56768000  0.09599000  0.93681000  1.0
  N  N4  1  0.59517000  0.88527000  0.42717000  1.0
  N  N5  1  0.06768000  0.40401000  0.43681000  1.0
  N  N6  1  0.09517000  0.61473000  0.92716000  1.0
  N  N7  1  0.43232000  0.90401000  0.06319000  1.0
  N  N8  1  0.40483000  0.11473000  0.57284000  1.0
  O  O1  1  0.24560000  0.88285000  0.91715000  1.0
  O  O2  1  0.28186000  0.74460000  0.91298000  1.0
  O  O3  1  0.24124000  0.05889000  0.66375000  1.0
  O  O4  1  0.22265000  0.99637000  0.53944000  1.0
  O  O5  1  0.24569000  0.02435000  0.04670000  1.0
  O  O6  1  0.27791000  0.96645000  0.17367000  1.0
  O  O7  1  0.23636000  0.14197000  0.41695000  1.0
  O  O8  1  0.23745000  0.28379000  0.40540000  1.0
  O  O9  1  0.26415000  0.68766000  0.60205000  1.0
  O  O10  1  0.23694000  0.33467000  0.09555000  1.0
  O  O11  1  0.25440000  0.38285000  0.58285000  1.0
  O  O12  1  0.21815000  0.24460000  0.58702000  1.0
  O  O13  1  0.25876000  0.55888000  0.83624000  1.0
  O  O14  1  0.27736000  0.49637000  0.96056000  1.0
  O  O15  1  0.25431000  0.52435000  0.45332000  1.0
  O  O16  1  0.22209000  0.46646000  0.32634000  1.0
  O  O17  1  0.26364000  0.64197000  0.08305000  1.0
  O  O18  1  0.26255000  0.78378000  0.09460000  1.0
  O  O19  1  0.23585000  0.18767000  0.89795000  1.0
  O  O20  1  0.26306000  0.83466000  0.40446000  1.0
  O  O21  1  0.75440000  0.11715000  0.08285000  1.0
  O  O22  1  0.71814000  0.25540000  0.08702000  1.0
  O  O23  1  0.75876000  0.94111000  0.33625000  1.0
  O  O24  1  0.77735000  0.00363000  0.46057000  1.0
  O  O25  1  0.75431000  0.97565000  0.95331000  1.0
  O  O26  1  0.72209000  0.03355000  0.82633000  1.0
  O  O27  1  0.76364000  0.85803000  0.58305000  1.0
  O  O28  1  0.76255000  0.71621000  0.59460000  1.0
  O  O29  1  0.73585000  0.31234000  0.39795000  1.0
  O  O30  1  0.76306000  0.66533000  0.90445000  1.0
  O  O31  1  0.74560000  0.61715000  0.41715000  1.0
  O  O32  1  0.78185000  0.75540000  0.41298000  1.0
  O  O33  1  0.74124000  0.44112000  0.16376000  1.0
  O  O34  1  0.72264000  0.50363000  0.03944000  1.0
  O  O35  1  0.74569000  0.47565000  0.54669000  1.0
  O  O36  1  0.77791000  0.53354000  0.67366000  1.0
  O  O37  1  0.73636000  0.35803000  0.91695000  1.0
  O  O38  1  0.73745000  0.21622000  0.90540000  1.0
  O  O39  1  0.76415000  0.81233000  0.10205000  1.0
  O  O40  1  0.73694000  0.16534000  0.59555000  1.0
