# generated using pymatgen
data_H40C63N4
_symmetry_space_group_name_H-M   'P 1'
_cell_length_a   44.54765650
_cell_length_b   44.54765650
_cell_length_c   44.54765650
_cell_angle_alpha   60.00000000
_cell_angle_beta   60.00000000
_cell_angle_gamma   60.00000000
_symmetry_Int_Tables_number   1
_chemical_formula_structural   H40C63N4
_chemical_formula_sum   'H240 C378 N24'
_cell_volume   62511.45232547
_cell_formula_units_Z   6
loop_
 _symmetry_equiv_pos_site_id
 _symmetry_equiv_pos_as_xyz
  1  'x, y, z'
loop_
 _atom_site_type_symbol
 _atom_site_label
 _atom_site_symmetry_multiplicity
 _atom_site_fract_x
 _atom_site_fract_y
 _atom_site_fract_z
 _atom_site_occupancy
  C  1  1  0.75885875  0.87128625  0.86533825  1
  C  2  1  0.86807950  0.88119550  0.75253250  1
  C  3  1  0.87563525  0.76463475  0.85948475  1
  C  4  1  0.89093750  0.86505000  0.72450900  1
  C  5  1  0.90715625  0.88552675  0.68820275  1
  C  6  1  0.90126375  0.92316325  0.67822375  1
  C  7  1  0.87812000  0.93955000  0.70597150  1
  C  8  1  0.86198450  0.91896050  0.74233150  1
  C  9  1  0.74422975  0.90776175  0.86541725  1
  C  10  1  0.70630150  0.92434400  0.88174350  1
  C  11  1  0.68143600  0.90509550  0.89853400  1
  C  12  1  0.69600450  0.86851500  0.89888550  1
  C  13  1  0.73397100  0.85185400  0.88291250  1
  C  14  1  0.85929650  0.73673300  0.88078100  1
  C  15  1  0.87923625  0.70005675  0.89688025  1
  C  16  1  0.91657775  0.68947275  0.89243025  1
  C  17  1  0.93318525  0.71707375  0.87087925  1
  C  18  1  0.91311150  0.75381200  0.85488950  1
  C  30  1  0.85508475  0.80209725  0.84300075  1
  C  31  1  0.81783775  0.81878025  0.86203575  1
  C  32  1  0.79694675  0.85534725  0.84620825  1
  C  33  1  0.81440375  0.87540325  0.80998225  1
  C  34  1  0.85147550  0.86022850  0.78959550  1
  C  35  1  0.87113725  0.82354475  0.80680825  1
  C  40  1  0.93630450  0.65337550  0.90905450  1
  C  41  1  0.64357525  0.92280225  0.91030825  1
  C  42  1  0.91799475  0.94341775  0.64254025  1
  C  46  1  0.48664975  0.86527975  0.87113525  1
  C  47  1  0.48011500  0.75255600  0.88110350  1
  C  48  1  0.48221125  0.85949825  0.76453675  1
  C  49  1  0.50139300  0.72453850  0.86495000  1
  C  50  1  0.50099425  0.68823575  0.88543125  1
  C  51  1  0.47924675  0.67825425  0.92307375  1
  C  52  1  0.45829625  0.70599325  0.93946825  1
  C  53  1  0.45866525  0.74235325  0.91887675  1
  C  54  1  0.46474625  0.86538675  0.90760675  1
  C  55  1  0.46984800  0.88167150  0.92416650  1
  C  56  1  0.49720450  0.89842850  0.90487950  1
  C  57  1  0.51882900  0.89876450  0.86830050  1
  C  58  1  0.51341075  0.88284275  0.85165825  1
  C  59  1  0.50522575  0.88071325  0.73662425  1
  C  60  1  0.50584350  0.89684100  0.69995100  1
  C  61  1  0.48346175  0.89247625  0.68938575  1
  C  62  1  0.46076075  0.87097175  0.71699425  1
  C  63  1  0.46009350  0.85497050  0.75372950  1
  C  75  1  0.48178150  0.84301150  0.80199950  1
  C  76  1  0.48338575  0.86201825  0.81865875  1
  C  77  1  0.48354875  0.84618125  0.85522175  1
  C  78  1  0.48217775  0.80998575  0.87530625  1
  C  79  1  0.48063825  0.78961575  0.86013625  1
  C  80  1  0.48042775  0.80683775  0.82345825  1
  C  85  1  0.48319650  0.90913100  0.65328950  1
  C  86  1  0.50562975  0.91016875  0.92257675  1
  C  87  1  0.47795725  0.64256575  0.94333425  1
  C  91  1  0.86553775  0.48636525  0.75894175  1
  C  92  1  0.75270750  0.48003500  0.86810300  1
  C  93  1  0.85955925  0.48223475  0.87570625  1
  C  94  1  0.72464875  0.50135225  0.89094325  1
  C  95  1  0.68834675  0.50096325  0.90710475  1
  C  96  1  0.67841950  0.47916950  0.90119500  1
  C  97  1  0.70620700  0.45815700  0.87808650  1
  C  98  1  0.74255975  0.45852725  0.86200075  1
  C  99  1  0.86565050  0.46439500  0.74434000  1
  C  100  1  0.88195750  0.46941200  0.70641400  1
  C  101  1  0.89870300  0.49676800  0.68153200  1
  C  102  1  0.89904175  0.51845625  0.69607775  1
  C  103  1  0.88312025  0.51310425  0.73404675  1
  C  104  1  0.88083375  0.50520025  0.85935925  1
  C  105  1  0.89692500  0.50586300  0.87929050  1
  C  106  1  0.89247125  0.48357125  0.91663525  1
  C  107  1  0.87092550  0.46090550  0.93325600  1
  C  108  1  0.85495425  0.46019775  0.91318825  1
  C  120  1  0.84311100  0.48176000  0.85515350  1
  C  121  1  0.86218050  0.48325600  0.81791600  1
  C  122  1  0.84638300  0.48337800  0.79701650  1
  C  123  1  0.81016625  0.48207175  0.81445775  1
  C  124  1  0.78975800  0.48057250  0.85151950  1
  C  125  1  0.80692950  0.48042750  0.87119150  1
  C  130  1  0.90909200  0.48333600  0.93635300  1
  C  131  1  0.91047700  0.50512200  0.64367850  1
  C  132  1  0.64274200  0.47786300  0.91788250  1
  C  136  1  0.87105175  0.75879425  0.48665225  1
  C  137  1  0.88110200  0.86802800  0.48013350  1
  C  138  1  0.76446525  0.87564075  0.48230475  1
  C  139  1  0.86498675  0.89091425  0.50140875  1
  C  140  1  0.88549600  0.90712850  0.50097450  1
  C  141  1  0.92313525  0.90119925  0.47920425  1
  C  142  1  0.93949300  0.87801650  0.45826250  1
  C  143  1  0.91886950  0.86189500  0.45866000  1
  C  144  1  0.90751150  0.74413500  0.46472500  1
  C  145  1  0.92407600  0.70619400  0.46980800  1
  C  146  1  0.90479475  0.68135475  0.49713325  1
  C  147  1  0.86821975  0.69596225  0.51878025  1
  C  148  1  0.85158900  0.73393550  0.51341800  1
  C  149  1  0.73653425  0.85934575  0.50531075  1
  C  150  1  0.69985475  0.87931475  0.50596325  1
  C  151  1  0.68930350  0.91663900  0.48360500  1
  C  152  1  0.71693575  0.93320425  0.46088775  1
  C  153  1  0.75367783  0.91310233  0.46019367  1
  C  165  1  0.80193025  0.85506525  0.48186375  1
  C  166  1  0.81856800  0.81780100  0.48345450  1
  C  167  1  0.85514350  0.79689600  0.48358100  1
  C  168  1  0.87524300  0.81435450  0.48222350  1
  C  169  1  0.86010025  0.85143075  0.48068475  1
  C  170  1  0.82341500  0.87111000  0.48050400  1
  C  175  1  0.65320100  0.93638900  0.48336750  1
  C  176  1  0.92248375  0.64348825  0.50555125  1
  C  177  1  0.94341800  0.91793100  0.47785750  1
  C  181  1  0.50425675  0.11976475  0.12566975  1
  C  182  1  0.51073875  0.10983875  0.23841575  1
  C  183  1  0.50876625  0.22635425  0.13142925  1
  C  184  1  0.48949025  0.12601175  0.26641775  1
  C  185  1  0.48990075  0.10554625  0.30271725  1
  C  186  1  0.51163475  0.06789875  0.31270975  1
  C  187  1  0.53256400  0.05148850  0.28498450  1
  C  188  1  0.53216800  0.07206100  0.24863300  1
  C  189  1  0.52597275  0.08320525  0.12577375  1
  C  190  1  0.52079250  0.06663000  0.10956750  1
  C  191  1  0.49355575  0.08598875  0.09265025  1
  C  192  1  0.47215500  0.12267350  0.09205700  1
  C  193  1  0.47763775  0.13931975  0.10792325  1
  C  194  1  0.48578450  0.25427750  0.11018250  1
  C  195  1  0.48517300  0.29094550  0.09407450  1
  C  196  1  0.50753450  0.30149800  0.09848450  1
  C  197  1  0.53022375  0.27387525  0.11999525  1
  C  198  1  0.53086725  0.23714775  0.13599775  1
  C  210  1  0.50916275  0.18890175  0.14792475  1
  C  211  1  0.50757275  0.17223575  0.12891425  1
  C  212  1  0.50736650  0.13568500  0.14476200  1
  C  213  1  0.50867825  0.11562875  0.18098375  1
  C  214  1  0.51022575  0.13079625  0.20135025  1
  C  215  1  0.51047550  0.16746000  0.18411250  1
  C  220  1  0.50781225  0.33758625  0.08185125  1
  C  221  1  0.48494825  0.06819225  0.08116175  1
  C  222  1  0.51294900  0.04765300  0.34839200  1
  C  226  1  0.23207625  0.12560425  0.11968875  1
  C  227  1  0.12291150  0.23846100  0.10977450  1
  C  228  1  0.11531575  0.13152975  0.22635475  1
  C  229  1  0.10007075  0.26649275  0.12591175  1
  C  230  1  0.08387775  0.30280175  0.10542175  1
  C  231  1  0.08975650  0.31276800  0.06779150  1
  C  232  1  0.11287425  0.28501075  0.05141625  1
  C  233  1  0.12898700  0.24864800  0.07201750  1
  C  234  1  0.24668075  0.12551825  0.08321975  1
  C  235  1  0.28460075  0.10916925  0.06663075  1
  C  236  1  0.30947700  0.09234550  0.08587700  1
  C  237  1  0.29493050  0.09198900  0.12245450  1
  C  238  1  0.25697250  0.10799600  0.13911800  1
  C  239  1  0.13166225  0.11021625  0.25425025  1
  C  240  1  0.11172600  0.09410550  0.29092600  1
  C  241  1  0.07437550  0.09858550  0.30151350  1
  C  242  1  0.05775550  0.12017050  0.27392100  1
  C  243  1  0.07782825  0.13615675  0.23718475  1
  C  255  1  0.13587050  0.14800300  0.18888950  1
  C  256  1  0.17310700  0.12894150  0.17220250  1
  C  257  1  0.19400050  0.14475650  0.13563250  1
  C  258  1  0.17656200  0.18098950  0.11557450  1
  C  259  1  0.13950225  0.20139625  0.13074925  1
  C  260  1  0.11983325  0.18419825  0.16743775  1
  C  265  1  0.05465125  0.08194875  0.33760575  1
  C  266  1  0.34733425  0.08049725  0.06818225  1
  C  267  1  0.07302750  0.34845000  0.04753600  1
  C  271  1  0.11992075  0.50424275  0.23225025  1
  C  272  1  0.10986925  0.51069175  0.12305275  1
  C  273  1  0.22650525  0.50855775  0.11540375  1
  C  274  1  0.12597825  0.48940775  0.10017625  1
  C  275  1  0.10546700  0.48984550  0.08396250  1
  C  276  1  0.06783325  0.51162925  0.08988125  1
  C  277  1  0.05147700  0.53257550  0.11305950  1
  C  278  1  0.07210450  0.53217250  0.12918050  1
  C  279  1  0.08346225  0.52619575  0.24687825  1
  C  280  1  0.06689450  0.52118650  0.28480400  1
  C  281  1  0.08615000  0.49384550  0.30966000  1
  C  282  1  0.12272075  0.47217075  0.29509175  1
  C  283  1  0.13937450  0.47750900  0.25712550  1
  C  284  1  0.25443875  0.48557675  0.13169725  1
  C  285  1  0.29111675  0.48492575  0.11171875  1
  C  286  1  0.30166850  0.50725650  0.07438250  1
  C  287  1  0.27403375  0.52995075  0.05781925  1
  C  288  1  0.23729650  0.53063400  0.07792950  1
  C  300  1  0.18904375  0.50898975  0.13598675  1
  C  301  1  0.17240575  0.50741375  0.17324725  1
  C  302  1  0.13583625  0.50727325  0.19415925  1
  C  303  1  0.11573475  0.50861775  0.17671275  1
  C  304  1  0.13087400  0.51014900  0.13963950  1
  C  305  1  0.16755900  0.51033250  0.11995250  1
  C  310  1  0.33777100  0.50749250  0.05461900  1
  C  311  1  0.06850075  0.48555475  0.34752475  1
  C  312  1  0.04755525  0.51299125  0.07313475  1
  C  316  1  0.12547400  0.23210700  0.50446250  1
  C  317  1  0.23834050  0.12298750  0.51073050  1
  C  318  1  0.13149900  0.11532650  0.50857350  1
  C  319  1  0.26641300  0.10017700  0.48938600  1
  C  320  1  0.30270875  0.08400575  0.48979225  1
  C  321  1  0.31261975  0.08989525  0.51161475  1
  C  322  1  0.28482200  0.11298850  0.53264100  1
  C  323  1  0.24847200  0.12907400  0.53226200  1
  C  324  1  0.12535075  0.24667925  0.52646425  1
  C  325  1  0.10898625  0.28458975  0.52151525  1
  C  326  1  0.09220200  0.30948450  0.49419100  1
  C  327  1  0.09188450  0.29496900  0.47246400  1
  C  328  1  0.10784375  0.25701075  0.47776275  1
  C  329  1  0.11019300  0.13166100  0.48564050  1
  C  330  1  0.09410300  0.11171250  0.48500250  1
  C  331  1  0.09859625  0.07435875  0.50728175  1
  C  332  1  0.12017325  0.05775025  0.52991425  1
  C  333  1  0.13614508  0.07783092  0.53060658  1
  C  345  1  0.14794450  0.13589700  0.50902600  1
  C  346  1  0.12886525  0.17313525  0.50752875  1
  C  347  1  0.14464950  0.19403850  0.50741850  1
  C  348  1  0.18086950  0.17661450  0.50871150  1
  C  349  1  0.20129275  0.13955775  0.51019375  1
  C  350  1  0.18413075  0.11987625  0.51033975  1
  C  355  1  0.08197575  0.05462325  0.50754325  1
  C  356  1  0.08028650  0.34733500  0.48594600  1
  C  357  1  0.34828875  0.07319075  0.51294325  1
  C  1441  1  0.53040400  0.99902400  0.96285650  1
  C  1442  1  0.52960000  0.03085050  0.93094850  1
  C  1443  1  0.46131650  0.06000250  0.96008650  1
  C  1444  1  0.46050975  0.02810375  0.99192225  1
  C  1445  1  0.42629475  0.02839925  0.02125425  1
  C  1446  1  0.39417625  0.05962525  0.01983375  1
  C  1447  1  0.39575025  0.09063525  0.98768375  1
  C  1448  1  0.42885350  0.09073000  0.95814500  1
  C  1449  1  0.56205750  0.03277000  0.90021000  1
  C  1450  1  0.59514950  0.00321650  0.90029750  1
  C  1451  1  0.59672250  0.97106900  0.93131700  1
  C  1452  1  0.56461475  0.96968325  0.96256275  1
  C  1453  1  0.50117650  0.99220900  0.02795350  1
  C  1454  1  0.50033175  0.96036025  0.05983675  1
  C  1455  1  0.49061050  0.93110850  0.03058050  1
  C  1456  1  0.48972650  0.96301000  0.99875150  1
  C  1457  1  0.48707750  0.90032500  0.03246800  1
  C  1458  1  0.48355525  0.90036725  0.00287775  1
  C  1459  1  0.48311750  0.93137800  0.97072250  1
  C  1460  1  0.48526750  0.96266200  0.96936800  1
  C  1461  1  0.50555750  0.02162150  0.02833900  1
  C  1462  1  0.50767325  0.02027475  0.05963925  1
  C  1463  1  0.50730775  0.98808325  0.09061775  1
  C  1464  1  0.50386150  0.95846750  0.09062300  1
  C  1477  1  0.49545550  0.99558600  0.99537200  1
  C  1478  1  0.49549050  0.92843150  0.06249500  1
  C  1481  1  0.49546125  0.06272275  0.92821975  1
  C  1535  1  0.96293150  0.48958150  0.53051350  1
  C  1536  1  0.93107950  0.49032450  0.52973850  1
  C  1537  1  0.96028450  0.50017000  0.46147950  1
  C  1538  1  0.99205825  0.50118325  0.46064675  1
  C  1539  1  0.02139850  0.50576550  0.42643650  1
  C  1540  1  0.02005450  0.50791700  0.39435350  1
  C  1541  1  0.98797025  0.50732725  0.39595275  1
  C  1542  1  0.95842150  0.50367750  0.42904950  1
  C  1543  1  0.90036400  0.48662900  0.56220900  1
  C  1544  1  0.90043450  0.48305200  0.59529100  1
  C  1545  1  0.93140950  0.48272650  0.59683100  1
  C  1546  1  0.96262050  0.48506850  0.56470500  1
  C  1547  1  0.02802675  0.46052775  0.50135925  1
  C  1548  1  0.05992775  0.46138375  0.50043025  1
  C  1549  1  0.03064575  0.52963975  0.49059425  1
  C  1550  1  0.99881425  0.53039325  0.48976725  1
  C  1551  1  0.03250750  0.56211050  0.48699350  1
  C  1552  1  0.00289650  0.59516500  0.48345150  1
  C  1553  1  0.97074975  0.59668575  0.48305675  1
  C  1554  1  0.96941225  0.56456225  0.48528525  1
  C  1555  1  0.02834600  0.42629650  0.50596350  1
  C  1556  1  0.05960450  0.39421300  0.50821600  1
  C  1557  1  0.09063250  0.39583450  0.50769450  1
  C  1558  1  0.09070000  0.42895550  0.50402500  1
  C  1571  1  0.99545550  0.49543000  0.49556950  1
  C  1572  1  0.06258850  0.49554600  0.49546750  1
  C  1575  1  0.92841425  0.49517375  0.49562425  1
  C  1629  1  0.00381825  0.96733425  0.52564525  1
  C  1630  1  0.03616250  0.93588700  0.52447700  1
  C  1631  1  0.06450575  0.96471175  0.45642325  1
  C  1632  1  0.03280050  0.99681050  0.45549850  1
  C  1633  1  0.03392300  0.02610350  0.42100900  1
  C  1634  1  0.06539150  0.02367700  0.38897900  1
  C  1635  1  0.09583075  0.99114775  0.39112325  1
  C  1636  1  0.09534050  0.96194750  0.42429300  1
  C  1637  1  0.03915100  0.90483500  0.55640400  1
  C  1638  1  0.00984775  0.90378175  0.58953275  1
  C  1639  1  0.97703425  0.93389675  0.59182525  1
  C  1640  1  0.97446750  0.96569100  0.56010950  1
  C  1641  1  0.99684900  0.03276200  0.49662650  1
  C  1642  1  0.96475450  0.06446950  0.49608600  1
  C  1643  1  0.93592850  0.03612200  0.48520650  1
  C  1644  1  0.96737425  0.00377675  0.48494075  1
  C  1645  1  0.90488225  0.03911625  0.48132775  1
  C  1646  1  0.90382125  0.00980325  0.47857925  1
  C  1647  1  0.93393125  0.97698775  0.47899775  1
  C  1648  1  0.96572825  0.97441975  0.48148125  1
  C  1649  1  0.02613750  0.03388050  0.50071150  1
  C  1650  1  0.02370875  0.06535025  0.50369925  1
  C  1651  1  0.99118750  0.09579600  0.50362350  1
  C  1652  1  0.96198700  0.09530450  0.50014750  1
  C  1665  1  0.00020900  0.00016900  0.49067900  1
  C  1666  1  0.93319375  0.06767675  0.49046075  1
  C  1669  1  0.06771325  0.93314975  0.49039975  1
  C  1723  1  0.48512500  0.52565500  0.96726850  1
  C  1724  1  0.48538200  0.52448700  0.93582800  1
  C  1725  1  0.49628800  0.45643050  0.96464850  1
  C  1726  1  0.49683550  0.45550650  0.99673850  1
  C  1727  1  0.50093625  0.42101075  0.02602375  1
  C  1728  1  0.50386375  0.38899475  0.02362025  1
  C  1729  1  0.50383100  0.39113100  0.99108450  1
  C  1730  1  0.50036800  0.42429500  0.96187800  1
  C  1731  1  0.48150875  0.55641425  0.90477725  1
  C  1732  1  0.47876550  0.58953850  0.90370800  1
  C  1733  1  0.47920850  0.59182150  0.93380800  1
  C  1734  1  0.48166475  0.56011925  0.96561625  1
  C  1735  1  0.45569175  0.49662075  0.03270525  1
  C  1736  1  0.45661825  0.49608675  0.06441075  1
  C  1737  1  0.52466275  0.48523975  0.03605475  1
  C  1738  1  0.52583175  0.48497275  0.00370675  1
  C  1739  1  0.55658600  0.48137850  0.03904700  1
  C  1740  1  0.58970475  0.47865125  0.00972975  1
  C  1741  1  0.59198750  0.47909000  0.97690650  1
  C  1742  1  0.56029075  0.48152725  0.97434925  1
  C  1743  1  0.42120425  0.50068375  0.03383225  1
  C  1744  1  0.38920350  0.50356700  0.06534300  1
  C  1745  1  0.39133725  0.50355375  0.09576675  1
  C  1746  1  0.42449200  0.50013500  0.09525150  1
  C  1759  1  0.49087100  0.49069150  0.00010400  1
  C  1760  1  0.49058800  0.49049250  0.06760850  1
  C  1763  1  0.49065125  0.49040775  0.93309075  1
  C  1817  1  0.95817950  0.53546450  0.99417000  1
  C  1818  1  0.92647275  0.53452825  0.02626675  1
  C  1819  1  0.95482800  0.46647250  0.05507600  1
  C  1820  1  0.98717600  0.46531800  0.02363150  1
  C  1821  1  0.01653775  0.43086375  0.02527425  1
  C  1822  1  0.01395675  0.39912825  0.05703975  1
  C  1823  1  0.98114400  0.40141050  0.08715550  1
  C  1824  1  0.95182825  0.43452925  0.08610425  1
  C  1825  1  0.89563425  0.56665375  0.02903875  1
  C  1826  1  0.89511750  0.59981550  0.99982450  1
  C  1827  1  0.92554500  0.60196350  0.96728550  1
  C  1828  1  0.95705200  0.56995950  0.96488250  1
  C  1829  1  0.02360450  0.50604000  0.98721350  1
  C  1830  1  0.05504400  0.50581250  0.95486050  1
  C  1831  1  0.02625150  0.49491350  0.92649500  1
  C  1832  1  0.99415725  0.49435325  0.95820175  1
  C  1833  1  0.02903200  0.49085450  0.89565200  1
  C  1834  1  0.99983575  0.48738625  0.89514375  1
  C  1835  1  0.96730550  0.48731750  0.92558000  1
  C  1836  1  0.96488375  0.49025075  0.95707675  1
  C  1837  1  0.02525075  0.50946075  0.01659125  1
  C  1838  1  0.05702650  0.51197950  0.01402850  1
  C  1839  1  0.08713450  0.51242550  0.98120750  1
  C  1840  1  0.08607275  0.50972125  0.95186975  1
  C  1853  1  0.99078275  0.50029175  0.99080725  1
  C  1854  1  0.05779400  0.50056450  0.92329350  1
  C  1857  1  0.92327525  0.50054675  0.05782475  1
  C  1911  1  0.53527675  0.95829025  0.49429325  1
  C  1912  1  0.53433300  0.92657700  0.49485950  1
  C  1913  1  0.46628400  0.95494400  0.50572750  1
  C  1914  1  0.46513500  0.98730050  0.50595600  1
  C  1915  1  0.43068625  0.01667325  0.50938025  1
  C  1916  1  0.39895775  0.01410025  0.51190425  1
  C  1917  1  0.40123475  0.98128275  0.51233475  1
  C  1918  1  0.43435000  0.95196300  0.50959700  1
  C  1919  1  0.56645200  0.89573150  0.49081650  1
  C  1920  1  0.59962000  0.89522000  0.48736300  1
  C  1921  1  0.60177850  0.92566100  0.48729150  1
  C  1922  1  0.56977375  0.95716425  0.49020525  1
  C  1923  1  0.50586050  0.02372450  0.46525500  1
  C  1924  1  0.50561225  0.05516225  0.46641925  1
  C  1925  1  0.49469425  0.02635025  0.53448025  1
  C  1926  1  0.49414850  0.99425800  0.53540500  1
  C  1927  1  0.49061625  0.02911925  0.56661525  1
  C  1928  1  0.48715650  0.99991000  0.59977900  1
  C  1929  1  0.48711075  0.96737825  0.60191925  1
  C  1930  1  0.49006500  0.96496800  0.56989600  1
  C  1931  1  0.50931950  0.02537100  0.43079400  1
  C  1932  1  0.51182575  0.05715925  0.39907525  1
  C  1933  1  0.51223725  0.08727125  0.40136575  1
  C  1934  1  0.50950325  0.08620425  0.43448525  1
  C  1947  1  0.50010400  0.99089700  0.50022300  1
  C  1948  1  0.50033400  0.05790550  0.50049950  1
  C  1951  1  0.50034825  0.92337725  0.50049125  1
  H  19  1  0.87332008  0.96657792  0.70007242  1
  H  20  1  0.84617825  0.93183275  0.76162125  1
  H  21  1  0.92332575  0.87256125  0.66896325  1
  H  22  1  0.74302175  0.82582775  0.88266875  1
  H  23  1  0.76113775  0.92291775  0.85300875  1
  H  24  1  0.69682525  0.95120375  0.87993475  1
  H  25  1  0.67888350  0.85389250  0.90994000  1
  H  26  1  0.83261725  0.74269725  0.88430725  1
  H  27  1  0.96002900  0.71079000  0.86713700  1
  H  28  1  0.92615225  0.77289475  0.84032175  1
  H  29  1  0.86611000  0.68098400  0.91186350  1
  H  36  1  0.79920450  0.90123950  0.79754300  1
  H  37  1  0.80578525  0.80428175  0.88850475  1
  H  38  1  0.89786650  0.81202850  0.79242550  1
  H  39  1  0.89558250  0.83813500  0.73009950  1
  H  43  1  0.96306325  0.64267075  0.89683525  1
  H  44  1  0.62746225  0.91318075  0.91058425  1
  H  45  1  0.90528475  0.97002825  0.63182375  1
  H  64  1  0.44193183  0.70013617  0.96653517  1
  H  65  1  0.44232850  0.76164000  0.93175100  1
  H  66  1  0.51701325  0.66900025  0.87246025  1
  H  67  1  0.53060900  0.88257500  0.82563450  1
  H  68  1  0.44508000  0.85299050  0.92279100  1
  H  69  1  0.45428300  0.87988800  0.95102200  1
  H  70  1  0.53951400  0.90982900  0.85364100  1
  H  71  1  0.52244350  0.88420400  0.74258300  1
  H  72  1  0.44386800  0.86731950  0.71072700  1
  H  73  1  0.44247525  0.84047525  0.77282775  1
  H  74  1  0.52309625  0.91178225  0.68087225  1
  H  81  1  0.48404250  0.79752000  0.90111750  1
  H  82  1  0.48349875  0.88847475  0.80415175  1
  H  83  1  0.47956225  0.79246875  0.81195175  1
  H  84  1  0.51806425  0.73012925  0.83803325  1
  H  88  1  0.47918975  0.89700725  0.64262575  1
  H  89  1  0.53104925  0.91059025  0.91284125  1
  H  90  1  0.47477675  0.63185325  0.96994425  1
  H  109  1  0.70036400  0.44179500  0.87324300  1
  H  110  1  0.76187550  0.44217900  0.84619200  1
  H  111  1  0.66907375  0.51701875  0.92324825  1
  H  112  1  0.88279075  0.53039525  0.74307075  1
  H  113  1  0.85323550  0.44474550  0.76125650  1
  H  114  1  0.88015875  0.45381825  0.69695375  1
  H  115  1  0.91006225  0.53916875  0.67893925  1
  H  116  1  0.88438350  0.52236050  0.83266850  1
  H  117  1  0.86718325  0.44409775  0.96010425  1
  H  118  1  0.84039875  0.44263025  0.92623375  1
  H  119  1  0.91191050  0.52307800  0.86615300  1
  H  126  1  0.79775100  0.48385000  0.79924900  1
  H  127  1  0.88863950  0.48336100  0.80587250  1
  H  128  1  0.79252500  0.47961300  0.89791500  1
  H  129  1  0.73019650  0.51807550  0.89557100  1
  H  133  1  0.89685025  0.47955475  0.96310175  1
  H  134  1  0.91059475  0.53062775  0.62757025  1
  H  135  1  0.63200800  0.47481400  0.90508700  1
  H  154  1  0.96653950  0.87318050  0.44189250  1
  H  155  1  0.93172000  0.84606750  0.44232900  1
  H  156  1  0.87255000  0.92332400  0.51698100  1
  H  157  1  0.82556800  0.74301100  0.53062900  1
  H  158  1  0.92267950  0.76102400  0.44504050  1
  H  159  1  0.95091375  0.69670025  0.45419675  1
  H  160  1  0.85357700  0.67886350  0.53948150  1
  H  161  1  0.74247825  0.83268075  0.52253375  1
  H  162  1  0.71067550  0.96003100  0.44402650  1
  H  163  1  0.77278325  0.92610575  0.44259275  1
  H  164  1  0.68075800  0.86622300  0.52322500  1
  H  171  1  0.90107225  0.79913525  0.48404275  1
  H  172  1  0.80404275  0.80575575  0.48356975  1
  H  173  1  0.81192775  0.89785125  0.47963625  1
  H  174  1  0.83807325  0.89558675  0.51808825  1
  H  178  1  0.64255750  0.96317350  0.47940550  1
  H  179  1  0.91270450  0.62736850  0.53094000  1
  H  180  1  0.97002200  0.90519700  0.47469600  1
  H  199  1  0.54888175  0.02442625  0.29087225  1
  H  200  1  0.54848375  0.05917075  0.22935775  1
  H  201  1  0.47390575  0.11853075  0.32194125  1
  H  202  1  0.46055325  0.16541025  0.10804075  1
  H  203  1  0.54553000  0.06795250  0.13830800  1
  H  204  1  0.53616375  0.03969475  0.11157925  1
  H  205  1  0.45152825  0.13738575  0.08091125  1
  H  206  1  0.46857250  0.24833000  0.10667050  1
  H  207  1  0.54708550  0.28013600  0.12370000  1
  H  208  1  0.54846600  0.21804000  0.15051250  1
  H  209  1  0.46793550  0.31003550  0.07911950  1
  H  216  1  0.50677025  0.08983425  0.19347175  1
  H  217  1  0.50750100  0.18673200  0.10244350  1
  H  218  1  0.51134400  0.17896750  0.19847850  1
  H  219  1  0.47283400  0.15293450  0.26081700  1
  H  223  1  0.51163600  0.34829000  0.09408050  1
  H  224  1  0.45965375  0.07849775  0.08025575  1
  H  225  1  0.51613050  0.02104350  0.35911750  1
  H  244  1  0.11768775  0.29087975  0.02436925  1
  H  245  1  0.14479125  0.22935375  0.05915025  1
  H  246  1  0.06773125  0.32205175  0.11837425  1
  H  247  1  0.24793925  0.10823375  0.16514275  1
  H  248  1  0.22976775  0.13796275  0.06806175  1
  H  249  1  0.29406375  0.11097625  0.03977525  1
  H  250  1  0.31206175  0.08090025  0.13707625  1
  H  251  1  0.15835575  0.10665025  0.24827625  1
  H  252  1  0.03090525  0.12393025  0.28021125  1
  H  253  1  0.06478225  0.15074225  0.21810475  1
  H  254  1  0.12486275  0.07909375  0.30999125  1
  H  261  1  0.19176575  0.19341775  0.08973425  1
  H  262  1  0.18514275  0.10246825  0.18670175  1
  H  263  1  0.09311250  0.19859950  0.17895400  1
  H  264  1  0.09545975  0.26091375  0.15281375  1
  H  268  1  0.02790825  0.09420125  0.34833875  1
  H  269  1  0.36345575  0.08033675  0.07771275  1
  H  270  1  0.08576275  0.35918125  0.02093825  1
  H  289  1  0.02443600  0.54895500  0.11788450  1
  H  290  1  0.05925925  0.54851125  0.14499925  1
  H  291  1  0.11840850  0.47383800  0.06776900  1
  H  292  1  0.16539300  0.46028500  0.24806350  1
  H  293  1  0.06830575  0.54586325  0.22997475  1
  H  294  1  0.04005775  0.53680725  0.29427575  1
  H  295  1  0.13736875  0.45152275  0.31220425  1
  H  296  1  0.24849650  0.46837150  0.15837100  1
  H  297  1  0.28029250  0.54679550  0.03098450  1
  H  298  1  0.21818675  0.54823075  0.06492725  1
  H  299  1  0.31021400  0.46768050  0.12481200  1
  H  306  1  0.08990575  0.50679925  0.19193575  1
  H  307  1  0.18692750  0.50731700  0.18528300  1
  H  308  1  0.17904475  0.51118575  0.09321825  1
  H  309  1  0.15289100  0.47272250  0.09550700  1
  H  313  1  0.34841050  0.51145100  0.02783700  1
  H  314  1  0.07806275  0.46008225  0.36365725  1
  H  315  1  0.02094475  0.51617625  0.08585225  1
  H  334  1  0.29065375  0.11781475  0.54902525  1
  H  335  1  0.22914700  0.14486550  0.54862550  1
  H  336  1  0.32198950  0.06787300  0.47373000  1
  H  337  1  0.10816025  0.24800275  0.46046575  1
  H  338  1  0.13778350  0.22975000  0.54609950  1
  H  339  1  0.11075725  0.29402975  0.53714475  1
  H  340  1  0.08078725  0.31211875  0.45180775  1
  H  341  1  0.10661750  0.15835650  0.46848850  1
  H  342  1  0.12394125  0.03089825  0.54671325  1
  H  343  1  0.15071525  0.06479925  0.54814775  1
  H  344  1  0.07909725  0.12484125  0.46780725  1
  H  351  1  0.19327425  0.19182675  0.50694175  1
  H  352  1  0.10239125  0.18515775  0.50746825  1
  H  353  1  0.19854550  0.09315300  0.51115400  1
  H  354  1  0.26086775  0.09554825  0.47266175  1
  H  358  1  0.09423350  0.02787700  0.51131300  1
  H  359  1  0.08045825  0.36344675  0.46035625  1
  H  360  1  0.35898650  0.08592400  0.51612000  1
  H  1465  1  0.50924400  0.98615250  0.11351350  1
  H  1466  1  0.50326100  0.93559400  0.11371550  1
  H  1467  1  0.48769650  0.87722350  0.05533100  1
  H  1468  1  0.48158075  0.87749025  0.00481125  1
  H  1469  1  0.48503000  0.98510750  0.94591350  1
  H  1470  1  0.50576050  0.04509050  0.00590700  1
  H  1471  1  0.42504100  0.00594400  0.04470000  1
  H  1472  1  0.37280625  0.11347475  0.98571475  1
  H  1473  1  0.42923225  0.11383075  0.93528175  1
  H  1474  1  0.56585700  0.94623000  0.98500850  1
  H  1475  1  0.56168275  0.05563075  0.87710475  1
  H  1476  1  0.61808725  0.00516925  0.87744975  1
  H  1479  1  0.51965050  0.90443600  0.06727450  1
  H  1480  1  0.47135800  0.92360800  0.08651050  1
  H  1482  1  0.49061300  0.06748050  0.90417550  1
  H  1483  1  0.50031050  0.08676700  0.92345950  1
  H  1559  1  0.11348850  0.37290650  0.50974400  1
  H  1560  1  0.11380275  0.42936525  0.50337475  1
  H  1561  1  0.05537050  0.56177600  0.48756950  1
  H  1562  1  0.00481600  0.61811400  0.48142350  1
  H  1563  1  0.94596850  0.56576700  0.48506200  1
  H  1564  1  0.00588800  0.42501000  0.50626700  1
  H  1565  1  0.04480500  0.50611650  0.42517200  1
  H  1566  1  0.98605225  0.50929675  0.37303025  1
  H  1567  1  0.93559975  0.50296475  0.42944375  1
  H  1568  1  0.98504700  0.48489250  0.56593150  1
  H  1569  1  0.87730050  0.48713750  0.56186000  1
  H  1570  1  0.87761425  0.48093575  0.61824725  1
  H  1573  1  0.06740825  0.49067025  0.51957675  1
  H  1574  1  0.08657850  0.50047450  0.47129550  1
  H  1576  1  0.90434575  0.51924975  0.49073925  1
  H  1577  1  0.92373050  0.47096850  0.50053700  1
  H  1653  1  0.98858900  0.11907600  0.50547100  1
  H  1654  1  0.93892650  0.11823100  0.49957850  1
  H  1655  1  0.88213600  0.06235150  0.48172050  1
  H  1656  1  0.88031650  0.01247300  0.47710050  1
  H  1657  1  0.98731525  0.95025875  0.48241325  1
  H  1658  1  0.05007625  0.01202375  0.50015875  1
  H  1659  1  0.01206525  0.05004125  0.41947975  1
  H  1660  1  0.11911475  0.98855525  0.36859825  1
  H  1661  1  0.11826600  0.93888700  0.42499350  1
  H  1662  1  0.95030750  0.98728300  0.56175300  1
  H  1663  1  0.06239075  0.88209425  0.55552375  1
  H  1664  1  0.01251950  0.88028000  0.61185000  1
  H  1667  1  0.90893500  0.07252750  0.51445150  1
  H  1668  1  0.92883725  0.09178775  0.46621675  1
  H  1670  1  0.07255850  0.90889450  0.48581700  1
  H  1671  1  0.09182675  0.92878875  0.49488725  1
  H  1747  1  0.36881675  0.50537375  0.11905575  1
  H  1748  1  0.42519175  0.49958375  0.11817025  1
  H  1749  1  0.55570500  0.48175950  0.06228800  1
  H  1750  1  0.61202325  0.47715175  0.01240825  1
  H  1751  1  0.56194975  0.48240775  0.95020225  1
  H  1752  1  0.41968150  0.50010350  0.01198700  1
  H  1753  1  0.50036450  0.41949050  0.04996600  1
  H  1754  1  0.50567100  0.36860300  0.98849200  1
  H  1755  1  0.49979925  0.42499625  0.93881775  1
  H  1756  1  0.48255800  0.56177450  0.98721950  1
  H  1757  1  0.48186925  0.55553525  0.88204525  1
  H  1758  1  0.47725500  0.61185850  0.88021450  1
  H  1761  1  0.48599200  0.51449250  0.07245150  1
  H  1762  1  0.49508625  0.46625525  0.09172125  1
  H  1764  1  0.51464050  0.48583150  0.90883000  1
  H  1765  1  0.46640975  0.49488575  0.92873925  1
  H  1841  1  0.11064125  0.51388725  0.97855425  1
  H  1842  1  0.10883250  0.50930400  0.92865000  1
  H  1843  1  0.05208900  0.49144350  0.87272300  1
  H  1844  1  0.00244100  0.48554300  0.87185950  1
  H  1845  1  0.94094925  0.49077875  0.97893675  1
  H  1846  1  0.00365850  0.50852050  0.04075250  1
  H  1847  1  0.04068875  0.42922175  0.00366875  1
  H  1848  1  0.97848050  0.37909200  0.11065850  1
  H  1849  1  0.92861100  0.43541500  0.10886850  1
  H  1850  1  0.97890675  0.57149375  0.94094225  1
  H  1851  1  0.87270800  0.56594450  0.05209950  1
  H  1852  1  0.87183100  0.62233700  0.00242350  1
  H  1855  1  0.06213100  0.52482150  0.89919300  1
  H  1856  1  0.08206750  0.47658900  0.91842950  1
  H  1858  1  0.89916050  0.49605850  0.06218900  1
  H  1859  1  0.91843775  0.50512025  0.08208325  1
  H  1935  1  0.51373325  0.11077025  0.37904775  1
  H  1936  1  0.50910150  0.10895350  0.43537050  1
  H  1937  1  0.49120825  0.05216925  0.56590975  1
  H  1938  1  0.48534175  0.00249225  0.62230125  1
  H  1939  1  0.49062425  0.94103025  0.57141775  1
  H  1940  1  0.50839125  0.00378075  0.42915225  1
  H  1941  1  0.42904975  0.04083325  0.50844975  1
  H  1942  1  0.37891525  0.97861475  0.51382425  1
  H  1943  1  0.43522000  0.92871700  0.50923550  1
  H  1944  1  0.57130600  0.97901300  0.49076800  1
  H  1945  1  0.56573575  0.87279575  0.49142025  1
  H  1946  1  0.62213100  0.87192050  0.48556500  1
  H  1949  1  0.52457450  0.06225850  0.49602400  1
  H  1950  1  0.47634500  0.08216750  0.50507100  1
  H  1952  1  0.49584775  0.89927975  0.52474675  1
  H  1953  1  0.50492850  0.91851000  0.47651300  1
  N  1484  1  0.48034825  0.93087925  0.94254875  1
  N  1485  1  0.62818725  0.94293675  0.93085075  1
  N  1486  1  0.36269225  0.06008075  0.04793425  1
  N  1487  1  0.51027950  0.04851600  0.06019200  1
  N  1578  1  0.94257000  0.62811500  0.48024800  1
  N  1579  1  0.93095650  0.47983600  0.62829550  1
  N  1580  1  0.04815450  0.51087400  0.36286900  1
  N  1581  1  0.06004625  0.36269925  0.51124075  1
  N  1672  1  0.92776275  0.95061475  0.47931825  1
  N  1673  1  0.95066900  0.92773950  0.62405350  1
  N  1674  1  0.07090550  0.04983050  0.35641850  1
  N  1675  1  0.04986125  0.07086725  0.50459075  1
  N  1766  1  0.62423325  0.47933125  0.95056075  1
  N  1767  1  0.47946900  0.62406250  0.92766100  1
  N  1768  1  0.50478900  0.35642800  0.04976600  1
  N  1769  1  0.35664325  0.50445675  0.07086125  1
  N  1860  1  0.94117825  0.48635925  0.92008375  1
  N  1861  1  0.92004025  0.63453325  0.94114425  1
  N  1862  1  0.04033150  0.36691000  0.06320400  1
  N  1863  1  0.06320775  0.51159225  0.04042775  1
  N  1954  1  0.48624550  0.94120900  0.63446650  1
  N  1955  1  0.63433850  0.92013450  0.48640700  1
  N  1956  1  0.36675725  0.04048775  0.51153825  1
  N  1957  1  0.51149725  0.06332975  0.36685625  1
