# generated using pymatgen
data_H2C3N
_symmetry_space_group_name_H-M   'P 1'
_cell_length_a   15.25490000
_cell_length_b   15.25490000
_cell_length_c   45.76470000
_cell_angle_alpha   90.00000000
_cell_angle_beta   90.00000000
_cell_angle_gamma   120.00000000
_symmetry_Int_Tables_number   1
_chemical_formula_structural   H2C3N
_chemical_formula_sum   'H60 C90 N30'
_cell_volume   9223.16507440
_cell_formula_units_Z   30
loop_
 _symmetry_equiv_pos_site_id
 _symmetry_equiv_pos_as_xyz
  1  'x, y, z'
loop_
 _atom_site_type_symbol
 _atom_site_label
 _atom_site_symmetry_multiplicity
 _atom_site_fract_x
 _atom_site_fract_y
 _atom_site_fract_z
 _atom_site_occupancy
  C  1  1  0.96157200  0.97695900  0.98903500  1
  C  2  1  0.86181600  0.89485400  0.99456700  1
  C  3  1  0.79790850  0.83703150  0.97101700  1
  C  4  1  0.83407700  0.86557900  0.94225300  1
  C  5  1  0.93027800  0.94900300  0.93591900  1
  C  6  1  0.99513250  0.00425150  0.95958400  1
  C  7  1  0.82845050  0.87403150  0.02384600  1
  C  8  1  0.09309550  0.08755050  0.95479600  1
  C  10  1  0.02715550  0.03247350  0.01285700  1
  C  11  1  0.99223550  0.00767950  0.04228400  1
  C  12  1  0.05776450  0.06149950  0.06597700  1
  C  13  1  0.15752900  0.13844300  0.05970100  1
  C  14  1  0.19404300  0.16634300  0.03094600  1
  C  15  1  0.12746650  0.11354350  0.00733600  1
  C  16  1  0.89144050  0.92970850  0.04700800  1
  C  18  1  0.15801350  0.13967250  0.97799200  1
  C  23  1  0.95636950  0.97790850  0.90452900  1
  C  26  1  0.69355950  0.74798650  0.97502400  1
  C  29  1  0.02549900  0.04343500  0.09734400  1
  C  32  1  0.30066800  0.25128100  0.02700400  1
  C  35  1  0.01714350  0.03990250  0.32233800  1
  C  36  1  0.03479050  0.13966150  0.32786700  1
  C  37  1  0.04082500  0.20354200  0.30431600  1
  C  38  1  0.03315350  0.16734950  0.27555300  1
  C  39  1  0.02034850  0.07113550  0.26922100  1
  C  40  1  0.01082450  0.00632050  0.29288800  1
  C  41  1  0.04738250  0.17305250  0.35714500  1
  C  42  1  0.99618600  0.90836600  0.28810200  1
  C  44  1  0.00713350  0.97434650  0.34616200  1
  C  45  1  0.01731300  0.00929400  0.37558700  1
  C  46  1  0.00567800  0.94379900  0.39928200  1
  C  47  1  0.98287700  0.84403600  0.39300800  1
  C  48  1  0.97416000  0.80748300  0.36425300  1
  C  49  1  0.98788850  0.87403350  0.34064300  1
  C  50  1  0.04010150  0.11007750  0.38030900  1
  C  52  1  0.98342150  0.84346350  0.31129900  1
  C  57  1  0.02319300  0.04505800  0.23783000  1
  C  60  1  0.05613700  0.30789300  0.30832100  1
  C  63  1  0.01995300  0.97609200  0.43064700  1
  C  66  1  0.95246150  0.70085150  0.36031500  1
  C  69  1  0.02445300  0.98424100  0.65567400  1
  C  70  1  0.10655550  0.96658650  0.66120400  1
  C  71  1  0.16437200  0.96050300  0.63765300  1
  C  72  1  0.13582900  0.96813700  0.60888900  1
  C  73  1  0.05242900  0.98095600  0.60255800  1
  C  74  1  0.99717900  0.99054800  0.62622500  1
  C  75  1  0.12739100  0.95404800  0.69048200  1
  C  76  1  0.91387950  0.00521550  0.62143800  1
  C  78  1  0.96891800  0.99427100  0.67950000  1
  C  79  1  0.99368350  0.98408950  0.70892400  1
  C  80  1  0.93979600  0.99568600  0.73261900  1
  C  81  1  0.86284700  0.01850200  0.72634600  1
  C  82  1  0.83502850  0.02724850  0.69759000  1
  C  83  1  0.88786050  0.01353150  0.67398000  1
  C  84  1  0.07167200  0.96129100  0.71364600  1
  C  86  1  0.86176950  0.01802150  0.64463700  1
  C  91  1  0.02354100  0.97818200  0.57116700  1
  C  94  1  0.25341200  0.94518900  0.64165600  1
  C  97  1  0.95782000  0.98141700  0.76398200  1
  C  100  1  0.75011100  0.04896900  0.69365000  1
  C  103  1  0.07464100  0.04324000  0.80470500  1
  C  105  1  0.05651600  0.92703500  0.84269900  1
  C  106  1  0.06632700  0.99765400  0.86418000  1
  C  108  1  0.09205050  0.11696550  0.82629400  1
  C  110  1  0.10610500  0.20657100  0.82068700  1
  C  116  1  0.97032050  0.92644150  0.13803300  1
  C  118  1  0.87206000  0.94443700  0.17600300  1
  C  119  1  0.93308750  0.93500650  0.19748900  1
  C  121  1  0.02665150  0.90911850  0.15963600  1
  C  123  1  0.10224050  0.89510850  0.15404500  1
  C  129  1  0.95816050  0.03116350  0.47136100  1
  C  131  1  0.07437000  0.12926600  0.50934900  1
  C  132  1  0.00377750  0.06843350  0.53083100  1
  C  134  1  0.88440250  0.97490750  0.49294800  1
  C  136  1  0.79491150  0.89913850  0.48735800  1
  C  142  1  0.59741250  0.57988550  0.99621700  1
  C  144  1  0.45153300  0.51107200  0.02715000  1
  C  145  1  0.40233600  0.42377000  0.00946800  1
  C  147  1  0.54806250  0.49246150  0.97832100  1
  C  149  1  0.58829900  0.47872100  0.95501500  1
  C  155  1  0.98422950  0.40406250  0.32952700  1
  C  157  1  0.06133600  0.54995900  0.36045300  1
  C  158  1  0.02323950  0.59916050  0.34277100  1
  C  160  1  0.94615800  0.45341600  0.31163100  1
  C  162  1  0.89218150  0.41317850  0.28832500  1
  C  168  1  0.42151400  0.01712100  0.66283600  1
  C  170  1  0.49027200  0.93996700  0.69375800  1
  C  171  1  0.57764250  0.97818850  0.67610200  1
  C  173  1  0.50903500  0.05535900  0.64497500  1
  C  175  1  0.52284800  0.10944200  0.62168900  1
  H  9  1  0.78776500  0.82526100  0.92525500  1
  H  17  1  0.20466400  0.17746700  0.07669500  1
  H  19  1  0.86143400  0.91086600  0.06751300  1
  H  20  1  0.75687700  0.81830100  0.02901800  1
  H  21  1  0.22823900  0.19797300  0.97277700  1
  H  22  1  0.12021900  0.11180200  0.93422800  1
  H  24  1  0.89247100  0.93024900  0.89016300  1
  H  25  1  0.96971100  0.05499100  0.90219800  1
  H  27  1  0.65538600  0.71854900  0.95405600  1
  H  28  1  0.64840150  0.77370350  0.98692900  1
  H  30  1  0.96309850  0.05882450  0.09962100  1
  H  31  1  0.08608600  0.09709800  0.11174200  1
  H  33  1  0.34003100  0.22532500  0.01250100  1
  H  34  1  0.34258150  0.27160350  0.04766600  1
  H  43  1  0.03912350  0.21364850  0.25855300  1
  H  51  1  0.97477100  0.79691000  0.41000200  1
  H  53  1  0.05133300  0.14011100  0.40081100  1
  H  54  1  0.06322900  0.24462700  0.36231400  1
  H  55  1  0.97148750  0.77323450  0.30608600  1
  H  56  1  0.99324800  0.88121400  0.26753400  1
  H  58  1  0.03939200  0.10893800  0.22346100  1
  H  59  1  0.08697300  0.03177400  0.23550300  1
  H  61  1  0.06483300  0.34604900  0.28735100  1
  H  62  1  0.12704000  0.35306500  0.32021400  1
  H  64  1  0.09773600  0.03851700  0.43290800  1
  H  65  1  0.01309300  0.91552400  0.44504000  1
  H  67  1  0.88711500  0.66147600  0.34582100  1
  H  68  1  0.93090300  0.65895900  0.38097900  1
  H  77  1  0.17616600  0.96218000  0.59189100  1
  H  85  1  0.82384150  0.02663650  0.74333900  1
  H  87  1  0.09049450  0.95008650  0.73414900  1
  H  88  1  0.18309900  0.93817100  0.69565200  1
  H  89  1  0.80346050  0.02993350  0.63942300  1
  H  90  1  0.88965550  0.00813650  0.60087200  1
  H  92  1  0.07120150  0.96195250  0.55679800  1
  H  93  1  0.94645700  0.91444200  0.56883200  1
  H  95  1  0.28282700  0.93642500  0.62068800  1
  H  96  1  0.22769250  0.87431950  0.65356700  1
  H  98  1  0.94248950  0.90364350  0.76624400  1
  H  99  1  0.90409000  0.98824400  0.77837500  1
  H  101  1  0.77609200  0.11431800  0.67916100  1
  H  102  1  0.72977450  0.07052350  0.71431700  1
  H  109  1  0.04041600  0.85560200  0.84816400  1
  H  113  1  0.08036250  0.12535150  0.76891800  1
  H  115  1  0.03581200  0.90260600  0.89841400  1
  H  122  1  0.81702100  0.96097900  0.18144800  1
  H  126  1  0.04682900  0.92084400  0.10225600  1
  H  128  1  0.86846100  0.96555700  0.23169600  1
  H  135  1  0.14580550  0.18459550  0.51481200  1
  H  139  1  0.87603300  0.95475300  0.43557600  1
  H  141  1  0.09885800  0.13293000  0.56506000  1
  H  148  1  0.41728650  0.51947050  0.04525400  1
  H  152  1  0.74090350  0.64263050  0.98083700  1
  H  154  1  0.26573150  0.36551550  0.02894600  1
  H  161  1  0.10398550  0.58420850  0.37855600  1
  H  165  1  0.90344900  0.26056100  0.31416200  1
  H  167  1  0.10163550  0.73578050  0.36223600  1
  H  174  1  0.48181600  0.89723400  0.71184400  1
  H  178  1  0.35878900  0.09787600  0.64744500  1
  H  180  1  0.63586500  0.89979800  0.69557100  1
  N  104  1  0.05944450  0.95203150  0.81417000  1
  N  107  1  0.08541550  0.09018050  0.85481200  1
  N  111  1  0.11845600  0.28578100  0.81577100  1
  N  112  1  0.06266650  0.05303850  0.77425000  1
  N  114  1  0.04702300  0.97371800  0.89431200  1
  N  117  1  0.89430400  0.94165500  0.14748100  1
  N  120  1  0.00652400  0.91588100  0.18814800  1
  N  124  1  0.16913100  0.88279700  0.14914200  1
  N  125  1  0.99221350  0.93855050  0.10758300  1
  N  127  1  0.92838550  0.95436750  0.22761500  1
  N  130  1  0.04936700  0.10717900  0.48082100  1
  N  133  1  0.91125050  0.99499350  0.52146500  1
  N  137  1  0.71580650  0.83208550  0.48245700  1
  N  138  1  0.94835550  0.00935550  0.44090800  1
  N  140  1  0.02774000  0.07303900  0.56096100  1
  N  143  1  0.54628950  0.58485150  0.01990400  1
  N  146  1  0.45320450  0.41883550  0.98571900  1
  N  150  1  0.62403700  0.46641200  0.93447500  1
  N  151  1  0.69504200  0.66423100  0.99120800  1
  N  153  1  0.30310850  0.34289050  0.01485900  1
  N  156  1  0.04033300  0.45519200  0.35321100  1
  N  159  1  0.96742050  0.54828550  0.31902300  1
  N  163  1  0.84413400  0.37743900  0.26778500  1
  N  164  1  0.97093650  0.30642950  0.32451900  1
  N  166  1  0.04160550  0.69839650  0.34815700  1
  N  169  1  0.41649150  0.96093850  0.68650700  1
  N  172  1  0.58264900  0.03411300  0.65237400  1
  N  176  1  0.53521800  0.15757800  0.60116400  1
  N  177  1  0.33718550  0.03043950  0.65783000  1
  N  179  1  0.65851200  0.95982500  0.68149300  1
