# generated using pymatgen
data_H2C7N4O
_symmetry_space_group_name_H-M   'P 1'
_cell_length_a   9.88580000
_cell_length_b   22.32954938
_cell_length_c   22.33405000
_cell_angle_alpha   120.00000009
_cell_angle_beta   90.00000000
_cell_angle_gamma   90.00000000
_symmetry_Int_Tables_number   1
_chemical_formula_structural   H2C7N4O
_chemical_formula_sum   'H12 C42 N24 O6'
_cell_volume   4269.62658805
_cell_formula_units_Z   6
loop_
 _symmetry_equiv_pos_site_id
 _symmetry_equiv_pos_as_xyz
  1  'x, y, z'
loop_
 _atom_site_type_symbol
 _atom_site_label
 _atom_site_symmetry_multiplicity
 _atom_site_fract_x
 _atom_site_fract_y
 _atom_site_fract_z
 _atom_site_occupancy
  C  8  1  0.00835400  0.91656100  0.96095500  1
  C  11  1  0.99329800  0.80107600  0.95348000  1
  C  12  1  0.00877600  0.84305200  0.92326400  1
  C  14  1  0.02857550  0.73902900  0.81146800  1
  C  15  1  0.05342150  0.71337850  0.74189750  1
  C  82  1  0.00658850  0.62288300  0.80676100  1
  C  84  1  0.01119250  0.69691700  0.84229000  1
  C  111  1  0.99420700  0.51819700  0.81036400  1
  C  112  1  0.99705050  0.51401000  0.70255500  1
  C  136  1  0.86325450  0.37618350  0.54210350  1
  C  137  1  0.73677650  0.34528850  0.52307550  1
  C  141  1  0.86338300  0.14455800  0.60850000  1
  C  142  1  0.73693800  0.15661000  0.63952200  1
  C  146  1  0.86413450  0.44346750  0.84140050  1
  C  147  1  0.73759650  0.46313000  0.83058200  1
  C  199  1  0.00835250  0.02369650  0.96136250  1
  C  201  1  0.00853200  0.02329100  0.06806600  1
  C  202  1  0.99313650  0.27084200  0.46638400  1
  C  204  1  0.00687350  0.16266250  0.36166550  1
  C  206  1  0.99642900  0.16710800  0.47039800  1
  C  208  1  0.99348800  0.17441000  0.71376500  1
  C  210  1  0.00685250  0.17793300  0.82196800  1
  C  212  1  0.99710200  0.28220250  0.81741150  1
  C  214  1  0.01190700  0.12422800  0.28765700  1
  C  216  1  0.99295600  0.13125550  0.18353850  1
  C  217  1  0.00914100  0.05910200  0.14155800  1
  C  219  1  0.03030200  0.05135800  0.24552100  1
  C  220  1  0.05632450  0.00740200  0.27091800  1
  C  223  1  0.01174750  0.14237500  0.86042500  1
  C  225  1  0.99271350  0.03121950  0.85341950  1
  C  226  1  0.00889800  0.06139050  0.92556150  1
  C  228  1  0.03010050  0.17311200  0.93328500  1
  C  229  1  0.05595950  0.24248800  0.97723200  1
  C  232  1  0.98490800  0.34341200  0.50684500  1
  C  234  1  0.11286350  0.43865500  0.59384500  1
  C  235  1  0.99366400  0.47059650  0.63053950  1
  C  237  1  0.98526400  0.14226700  0.64124000  1
  C  239  1  0.11243750  0.13370300  0.54560600  1
  C  240  1  0.99307000  0.13848050  0.51376550  1
  C  242  1  0.98603850  0.47793500  0.84267000  1
  C  244  1  0.11377200  0.39019400  0.84986900  1
  C  245  1  0.99392550  0.35425850  0.84602750  1
  H  1  1  0.97957950  0.82192200  0.00553000  1
  H  3  1  0.97815250  0.97921550  0.82225850  1
  H  5  1  0.72497100  0.51229500  0.84348900  1
  H  85  1  0.13621000  0.68462750  0.72390450  1
  H  133  1  0.97832700  0.16242200  0.16271000  1
  H  139  1  0.72395800  0.30871700  0.47416200  1
  H  144  1  0.72473950  0.14259350  0.67494750  1
  H  222  1  0.13627500  0.01896400  0.30172500  1
  H  231  1  0.13595350  0.26176000  0.96573300  1
  H  236  1  0.20614550  0.45680500  0.61508100  1
  H  241  1  0.20562200  0.13671950  0.52731850  1
  H  246  1  0.20668700  0.36808500  0.84525200  1
  N  7  1  0.00856700  0.95286000  0.03135400  1
  N  9  1  0.00837050  0.95328150  0.92725050  1
  N  10  1  0.99445550  0.73120250  0.91230450  1
  N  13  1  0.02621350  0.80910450  0.85359250  1
  N  81  1  0.00088550  0.58844400  0.84310800  1
  N  83  1  0.00408300  0.58412400  0.73614700  1
  N  113  1  0.99190200  0.48229550  0.74051250  1
  N  135  1  0.87583700  0.43631000  0.60352800  1
  N  140  1  0.87561300  0.14580400  0.54834500  1
  N  145  1  0.87602100  0.38192800  0.83992800  1
  N  200  1  0.00855750  0.05740700  0.03177700  1
  N  203  1  0.00069550  0.23345250  0.39616650  1
  N  205  1  0.00412100  0.13069650  0.40032050  1
  N  207  1  0.99079850  0.23677150  0.50216950  1
  N  209  1  0.00072600  0.14161050  0.75119350  1
  N  211  1  0.00437600  0.24856400  0.85387100  1
  N  213  1  0.99146700  0.24427650  0.74776350  1
  N  215  1  0.99419050  0.15992900  0.25339800  1
  N  218  1  0.02759100  0.02341050  0.17547250  1
  N  224  1  0.99401500  0.07240900  0.82474400  1
  N  227  1  0.02733400  0.13100600  0.96123600  1
  N  233  1  0.10371850  0.37561550  0.53589850  1
  N  238  1  0.10372550  0.13896550  0.60871750  1
  N  243  1  0.10470950  0.44801750  0.84453850  1
  O  16  1  0.02852400  0.74955200  0.71647900  1
  O  71  1  0.03523700  0.94538350  0.23480950  1
  O  138  1  0.63658000  0.38106700  0.54947600  1
  O  143  1  0.63622750  0.15037950  0.60511750  1
  O  148  1  0.63613050  0.43559750  0.83709950  1
  O  230  1  0.03468750  0.26839300  0.03922300  1
