# generated using pymatgen
data_Ni2H14C14O9
_symmetry_space_group_name_H-M   'P 1'
_cell_length_a   10.29920000
_cell_length_b   10.83417000
_cell_length_c   19.54645000
_cell_angle_alpha   90.00759000
_cell_angle_beta   89.99464000
_cell_angle_gamma   89.95209000
_symmetry_Int_Tables_number   1
_chemical_formula_structural   Ni2H14C14O9
_chemical_formula_sum   'Ni8 H56 C56 O36'
_cell_volume   2181.05628376
_cell_formula_units_Z   4
loop_
 _symmetry_equiv_pos_site_id
 _symmetry_equiv_pos_as_xyz
  1  'x, y, z'
loop_
 _atom_site_type_symbol
 _atom_site_label
 _atom_site_symmetry_multiplicity
 _atom_site_fract_x
 _atom_site_fract_y
 _atom_site_fract_z
 _atom_site_occupancy
  Ni  Ni0  1  0.92991000  0.11345000  0.50688000  1
  Ni  Ni1  1  0.74455000  0.01838000  0.39877000  1
  Ni  Ni2  1  0.57009000  0.88669000  0.00682000  1
  Ni  Ni3  1  0.75556000  0.98194000  0.89872000  1
  Ni  Ni4  1  0.06930000  0.61549000  0.99564000  1
  Ni  Ni5  1  0.25628000  0.51947000  0.10192000  1
  Ni  Ni6  1  0.43078000  0.38448000  0.49562000  1
  Ni  Ni7  1  0.24380000  0.48058000  0.60191000  1
  H  H8  1  0.67017000  0.68943000  0.52104000  1
  H  H9  1  0.56275000  0.76904000  0.57661000  1
  H  H10  1  0.79893000  0.50426000  0.56479000  1
  H  H11  1  0.78231000  0.45511000  0.65054000  1
  H  H12  1  0.97837000  0.79652000  0.60417000  1
  H  H13  1  0.91281000  0.70492000  0.53718000  1
  H  H14  1  0.65566000  0.90122000  0.67393000  1
  H  H15  1  0.82539000  0.91277000  0.68463000  1
  H  H16  1  0.62884000  0.57039000  0.73151000  1
  H  H17  1  0.53871000  0.69800000  0.70128000  1
  H  H18  1  0.95630000  0.72789000  0.72732000  1
  H  H19  1  0.87557000  0.58779000  0.74753000  1
  H  H20  1  0.72262000  0.20883000  0.47770000  1
  H  H21  1  0.81075000  0.26036000  0.38371000  1
  H  H22  1  0.83011000  0.31049000  0.02106000  1
  H  H23  1  0.93742000  0.23098000  0.07673000  1
  H  H24  1  0.70108000  0.49570000  0.06485000  1
  H  H25  1  0.71765000  0.54490000  0.15061000  1
  H  H26  1  0.52176000  0.20338000  0.10421000  1
  H  H27  1  0.58731000  0.29501000  0.03724000  1
  H  H28  1  0.84434000  0.09869000  0.17394000  1
  H  H29  1  0.67458000  0.08725000  0.18463000  1
  H  H30  1  0.87138000  0.42952000  0.23157000  1
  H  H31  1  0.96137000  0.30189000  0.20120000  1
  H  H32  1  0.54378000  0.27215000  0.22743000  1
  H  H33  1  0.62455000  0.41223000  0.24757000  1
  H  H34  1  0.77744000  0.79130000  0.97765000  1
  H  H35  1  0.68935000  0.73973000  0.88367000  1
  H  H36  1  0.32967000  0.19158000  0.98054000  1
  H  H37  1  0.43614000  0.27058000  0.92440000  1
  H  H38  1  0.20020000  0.00453000  0.93602000  1
  H  H39  1  0.21823000  0.95610000  0.85015000  1
  H  H40  1  0.02058000  0.29693000  0.89653000  1
  H  H41  1  0.08584000  0.20512000  0.96358000  1
  H  H42  1  0.34244000  0.40359000  0.82751000  1
  H  H43  1  0.17275000  0.41344000  0.81657000  1
  H  H44  1  0.37245000  0.07221000  0.76992000  1
  H  H45  1  0.46142000  0.19986000  0.80082000  1
  H  H46  1  0.04429000  0.22846000  0.77326000  1
  H  H47  1  0.12606000  0.08853000  0.75332000  1
  H  H48  1  0.27654000  0.71174000  0.02211000  1
  H  H49  1  0.19069000  0.76343000  0.11823000  1
  H  H50  1  0.17061000  0.80877000  0.48061000  1
  H  H51  1  0.06394000  0.72982000  0.42458000  1
  H  H52  1  0.29985000  0.99582000  0.43605000  1
  H  H53  1  0.28189000  0.04407000  0.35017000  1
  H  H54  1  0.47952000  0.70323000  0.39649000  1
  H  H55  1  0.41430000  0.79498000  0.46361000  1
  H  H56  1  0.15793000  0.59637000  0.32747000  1
  H  H57  1  0.32774000  0.58691000  0.31662000  1
  H  H58  1  0.12738000  0.92776000  0.26998000  1
  H  H59  1  0.03872000  0.80008000  0.30102000  1
  H  H60  1  0.45584000  0.77194000  0.27323000  1
  H  H61  1  0.37388000  0.91180000  0.25342000  1
  H  H62  1  0.22347000  0.28843000  0.52215000  1
  H  H63  1  0.30938000  0.23661000  0.61817000  1
  C  C64  1  0.78262000  0.91381000  0.54586000  1
  C  C65  1  0.76712000  0.80638000  0.59536000  1
  C  C66  1  0.65609000  0.71997000  0.57401000  1
  C  C67  1  0.65353000  0.60649000  0.62276000  1
  C  C68  1  0.78382000  0.53678000  0.61726000  1
  C  C69  1  0.89544000  0.62286000  0.63834000  1
  C  C70  1  0.89743000  0.73586000  0.59014000  1
  C  C71  1  0.74736000  0.84990000  0.66943000  1
  C  C72  1  0.74420000  0.73726000  0.71762000  1
  C  C73  1  0.63233000  0.65016000  0.69695000  1
  C  C74  1  0.87571000  0.66722000  0.71258000  1
  C  C75  1  0.54030000  0.52724000  0.59856000  1
  C  C76  1  0.02788000  0.56288000  0.62903000  1
  C  C77  1  0.72912000  0.78235000  0.79063000  1
  C  C78  1  0.71742000  0.08621000  0.04591000  1
  C  C79  1  0.73300000  0.19363000  0.09540000  1
  C  C80  1  0.84406000  0.28003000  0.07406000  1
  C  C81  1  0.84651000  0.39354000  0.12282000  1
  C  C82  1  0.71618000  0.46321000  0.11732000  1
  C  C83  1  0.60457000  0.37712000  0.13841000  1
  C  C84  1  0.60266000  0.26411000  0.09020000  1
  C  C85  1  0.75268000  0.15008000  0.16947000  1
  C  C86  1  0.75585000  0.26276000  0.21764000  1
  C  C87  1  0.86776000  0.34980000  0.19698000  1
  C  C88  1  0.62435000  0.33279000  0.21263000  1
  C  C89  1  0.95968000  0.47292000  0.09867000  1
  C  C90  1  0.47207000  0.43708000  0.12905000  1
  C  C91  1  0.77077000  0.21771000  0.29067000  1
  C  C92  1  0.21508000  0.41470000  0.95564000  1
  C  C93  1  0.23157000  0.30737000  0.90589000  1
  C  C94  1  0.34307000  0.22131000  0.92738000  1
  C  C95  1  0.34618000  0.10739000  0.87883000  1
  C  C96  1  0.21605000  0.03744000  0.88372000  1
  C  C97  1  0.10424000  0.12325000  0.86254000  1
  C  C98  1  0.10157000  0.23630000  0.91071000  1
  C  C99  1  0.25147000  0.35124000  0.83185000  1
  C  C100  1  0.25591000  0.23817000  0.78392000  1
  C  C101  1  0.36809000  0.15153000  0.80478000  1
  C  C102  1  0.12465000  0.16773000  0.78847000  1
  C  C103  1  0.45984000  0.02835000  0.90315000  1
  C  C104  1  0.97193000  0.06293000  0.87127000  1
  C  C105  1  0.26928000  0.28143000  0.71064000  1
  C  C106  1  0.28503000  0.58532000  0.45562000  1
  C  C107  1  0.26858000  0.69279000  0.40592000  1
  C  C108  1  0.15713000  0.77892000  0.42746000  1
  C  C109  1  0.15394000  0.89278000  0.37887000  1
  C  C110  1  0.28408000  0.96278000  0.38377000  1
  C  C111  1  0.39598000  0.87699000  0.36261000  1
  C  C112  1  0.39858000  0.76388000  0.41073000  1
  C  C113  1  0.24880000  0.64892000  0.33185000  1
  C  C114  1  0.24428000  0.76198000  0.28393000  1
  C  C115  1  0.13202000  0.84847000  0.30483000  1
  C  C116  1  0.37546000  0.83256000  0.28853000  1
  C  C117  1  0.04007000  0.97162000  0.40313000  1
  C  C118  1  0.52821000  0.93722000  0.37132000  1
  C  C119  1  0.23104000  0.71874000  0.21066000  1
  O  O120  1  0.85117000  0.00622000  0.56927000  1
  O  O121  1  0.73928000  0.90479000  0.48613000  1
  O  O122  1  0.43188000  0.53765000  0.62718000  1
  O  O123  1  0.56473000  0.45591000  0.54602000  1
  O  O124  1  0.03909000  0.46303000  0.59391000  1
  O  O125  1  0.12828000  0.61784000  0.65229000  1
  O  O126  1  0.68905000  0.69947000  0.83591000  1
  O  O127  1  0.75659000  0.89108000  0.80553000  1
  O  O128  1  0.79937000  0.18655000  0.45123000  1
  O  O129  1  0.64885000  0.99383000  0.06926000  1
  O  O130  1  0.76076000  0.09530000  0.98610000  1
  O  O131  1  0.06835000  0.46233000  0.12715000  1
  O  O132  1  0.93524000  0.54446000  0.04628000  1
  O  O133  1  0.46090000  0.53687000  0.09392000  1
  O  O134  1  0.37163000  0.38214000  0.15227000  1
  O  O135  1  0.81109000  0.30060000  0.33594000  1
  O  O136  1  0.74294000  0.10916000  0.30553000  1
  O  O137  1  0.70074000  0.81375000  0.95118000  1
  O  O138  1  0.14298000  0.50550000  0.93335000  1
  O  O139  1  0.26157000  0.40620000  0.01476000  1
  O  O140  1  0.56913000  0.04234000  0.87569000  1
  O  O141  1  0.43539000  0.95477000  0.95476000  1
  O  O142  1  0.96059000  0.96261000  0.90588000  1
  O  O143  1  0.87157000  0.11795000  0.84816000  1
  O  O144  1  0.31178000  0.19815000  0.66616000  1
  O  O145  1  0.23728000  0.38805000  0.69455000  1
  O  O146  1  0.20160000  0.68809000  0.04960000  1
  O  O147  1  0.35715000  0.49449000  0.43332000  1
  O  O148  1  0.23855000  0.59364000  0.51468000  1
  O  O149  1  0.93109000  0.95793000  0.37542000  1
  O  O150  1  0.06442000  0.04484000  0.45487000  1
  O  O151  1  0.53939000  0.03733000  0.40617000  1
  O  O152  1  0.62859000  0.88249000  0.34798000  1
  O  O153  1  0.18822000  0.80191000  0.16622000  1
  O  O154  1  0.26358000  0.61207000  0.19453000  1
  O  O155  1  0.29845000  0.31197000  0.54959000  1
