# generated using pymatgen
data_GdH6(C2O)6
_symmetry_space_group_name_H-M   'P 1'
_cell_length_a   9.87390000
_cell_length_b   10.47670000
_cell_length_c   11.07350000
_cell_angle_alpha   77.23000000
_cell_angle_beta   76.42100000
_cell_angle_gamma   66.16600000
_symmetry_Int_Tables_number   1
_chemical_formula_structural   GdH6(C2O)6
_chemical_formula_sum   'Gd2 H12 C24 O12'
_cell_volume   1008.22421472
_cell_formula_units_Z   2
loop_
 _symmetry_equiv_pos_site_id
 _symmetry_equiv_pos_as_xyz
  1  'x, y, z'
loop_
 _atom_site_type_symbol
 _atom_site_label
 _atom_site_symmetry_multiplicity
 _atom_site_fract_x
 _atom_site_fract_y
 _atom_site_fract_z
 _atom_site_occupancy
  Gd  Gd1  1  0.94445000  0.22750000  0.82279000  1.0
  Gd  Gd2  1  0.05555000  0.77250000  0.17721000  1.0
  H  H1  1  0.64830000  0.86070000  0.15030000  1.0
  H  H2  1  0.59990000  0.11680000  0.82160000  1.0
  H  H3  1  0.43580000  0.41450000  0.70760000  1.0
  H  H4  1  0.73780000  0.50280000  0.42510000  1.0
  H  H5  1  0.31000000  0.92150000  0.50600000  1.0
  H  H6  1  0.45500000  0.18360000  0.60620000  1.0
  H  H7  1  0.35170000  0.13930000  0.84970000  1.0
  H  H8  1  0.40010000  0.88320000  0.17840000  1.0
  H  H9  1  0.56420000  0.58550000  0.29240000  1.0
  H  H10  1  0.26220000  0.49720000  0.57490000  1.0
  H  H11  1  0.69000000  0.07850000  0.49400000  1.0
  H  H12  1  0.54500000  0.81640000  0.39380000  1.0
  C  C1  1  0.64840000  0.98630000  0.98240000  1.0
  C  C2  1  0.58880000  0.91630000  0.09010000  1.0
  C  C3  1  0.55970000  0.06990000  0.89310000  1.0
  C  C4  1  0.80840000  0.97550000  0.96610000  1.0
  C  C5  1  0.60710000  0.44860000  0.58010000  1.0
  C  C6  1  0.46190000  0.44860000  0.62410000  1.0
  C  C7  1  0.64220000  0.50130000  0.45540000  1.0
  C  C8  1  0.72090000  0.38970000  0.66540000  1.0
  C  C9  1  0.35730000  0.06520000  0.56670000  1.0
  C  C10  1  0.38600000  0.95350000  0.50340000  1.0
  C  C11  1  0.47280000  0.11000000  0.56320000  1.0
  C  C12  1  0.20670000  0.13020000  0.64420000  1.0
  C  C13  1  0.35160000  0.01370000  0.01760000  1.0
  C  C14  1  0.41120000  0.08370000  0.90990000  1.0
  C  C15  1  0.44030000  0.93010000  0.10690000  1.0
  C  C16  1  0.19160000  0.02450000  0.03390000  1.0
  C  C17  1  0.39290000  0.55140000  0.41990000  1.0
  C  C18  1  0.53810000  0.55140000  0.37590000  1.0
  C  C19  1  0.35780000  0.49870000  0.54460000  1.0
  C  C20  1  0.27910000  0.61030000  0.33460000  1.0
  C  C21  1  0.64270000  0.93480000  0.43330000  1.0
  C  C22  1  0.61400000  0.04650000  0.49660000  1.0
  C  C23  1  0.52720000  0.89000000  0.43680000  1.0
  C  C24  1  0.79330000  0.86980000  0.35580000  1.0
  O  O1  1  0.85640000  0.04570000  0.87130000  1.0
  O  O2  1  0.88270000  0.89710000  0.04980000  1.0
  O  O3  1  0.85470000  0.37840000  0.62400000  1.0
  O  O4  1  0.68310000  0.34920000  0.77970000  1.0
  O  O5  1  0.17230000  0.24690000  0.68040000  1.0
  O  O6  1  0.11810000  0.06400000  0.67630000  1.0
  O  O7  1  0.14360000  0.95430000  0.12870000  1.0
  O  O8  1  0.11730000  0.10290000  0.95020000  1.0
  O  O9  1  0.14530000  0.62160000  0.37600000  1.0
  O  O10  1  0.31690000  0.65080000  0.22030000  1.0
  O  O11  1  0.82770000  0.75310000  0.31960000  1.0
  O  O12  1  0.88190000  0.93600000  0.32370000  1.0
