# generated using pymatgen
data_Cu2H32C61O8
_symmetry_space_group_name_H-M   'P 1'
_cell_length_a   20.48300000
_cell_length_b   20.48269000
_cell_length_c   44.95833000
_cell_angle_alpha   93.47858000
_cell_angle_beta   93.48257000
_cell_angle_gamma   96.44376000
_symmetry_Int_Tables_number   1
_chemical_formula_structural   Cu2H32C61O8
_chemical_formula_sum   'Cu8 H128 C244 O32'
_cell_volume   18664.99162757
_cell_formula_units_Z   4
loop_
 _symmetry_equiv_pos_site_id
 _symmetry_equiv_pos_as_xyz
  1  'x, y, z'
loop_
 _atom_site_type_symbol
 _atom_site_label
 _atom_site_symmetry_multiplicity
 _atom_site_fract_x
 _atom_site_fract_y
 _atom_site_fract_z
 _atom_site_occupancy
  Cu  Cu1  1  0.46648000  0.90608000  0.31408000  1.0
  Cu  Cu2  1  0.34723000  0.88624000  0.30622000  1.0
  Cu  Cu3  1  0.90608000  0.46648000  0.81408000  1.0
  Cu  Cu4  1  0.88624000  0.34722000  0.80622000  1.0
  Cu  Cu5  1  0.09393000  0.53353000  0.18592000  1.0
  Cu  Cu6  1  0.11376000  0.65278000  0.19378000  1.0
  Cu  Cu7  1  0.53353000  0.09392000  0.68592000  1.0
  Cu  Cu8  1  0.65278000  0.11376000  0.69378000  1.0
  H  H1  1  0.49124000  0.06282000  0.38360000  1.0
  H  H2  1  0.47938000  0.14348000  0.42634000  1.0
  H  H3  1  0.26823000  0.09952000  0.41450000  1.0
  H  H4  1  0.28094000  0.01851000  0.37207000  1.0
  H  H5  1  0.46912000  0.36852000  0.53857000  1.0
  H  H6  1  0.46951000  0.27984000  0.49920000  1.0
  H  H7  1  0.25736000  0.26060000  0.48963000  1.0
  H  H8  1  0.25725000  0.34981000  0.52910000  1.0
  H  H9  1  0.30738000  0.72404000  0.36246000  1.0
  H  H10  1  0.30037000  0.65452000  0.40611000  1.0
  H  H11  1  0.48924000  0.74997000  0.44243000  1.0
  H  H12  1  0.49673000  0.81723000  0.39796000  1.0
  H  H13  1  0.26341000  0.47777000  0.52876000  1.0
  H  H14  1  0.27180000  0.55967000  0.49067000  1.0
  H  H15  1  0.48343000  0.58110000  0.50508000  1.0
  H  H16  1  0.47480000  0.49804000  0.54227000  1.0
  H  H17  1  0.75449000  0.52767000  0.75434000  1.0
  H  H18  1  0.66958000  0.53745000  0.71309000  1.0
  H  H19  1  0.65837000  0.32833000  0.69094000  1.0
  H  H20  1  0.74389000  0.31966000  0.73168000  1.0
  H  H21  1  0.03043000  0.30809000  0.74286000  1.0
  H  H22  1  0.09749000  0.30920000  0.69834000  1.0
  H  H23  1  0.07635000  0.51487000  0.69144000  1.0
  H  H24  1  0.01104000  0.51342000  0.73656000  1.0
  H  H25  1  0.29558000  0.31653000  0.58101000  1.0
  H  H26  1  0.21229000  0.31209000  0.61841000  1.0
  H  H27  1  0.21548000  0.52293000  0.61974000  1.0
  H  H28  1  0.29891000  0.52707000  0.58233000  1.0
  H  H29  1  0.42140000  0.32544000  0.58541000  1.0
  H  H30  1  0.50755000  0.33279000  0.62649000  1.0
  H  H31  1  0.51676000  0.54435000  0.63142000  1.0
  H  H32  1  0.43047000  0.53679000  0.59023000  1.0
  H  H33  1  0.06282000  0.49124000  0.88360000  1.0
  H  H34  1  0.14348000  0.47938000  0.92634000  1.0
  H  H35  1  0.09952000  0.26822000  0.91450000  1.0
  H  H36  1  0.01851000  0.28093000  0.87207000  1.0
  H  H37  1  0.36852000  0.46913000  0.03857000  1.0
  H  H38  1  0.27984000  0.46952000  0.99920000  1.0
  H  H39  1  0.26061000  0.25736000  0.98964000  1.0
  H  H40  1  0.34983000  0.25726000  0.02910000  1.0
  H  H41  1  0.72403000  0.30738000  0.86246000  1.0
  H  H42  1  0.65452000  0.30037000  0.90611000  1.0
  H  H43  1  0.74997000  0.48924000  0.94243000  1.0
  H  H44  1  0.81722000  0.49673000  0.89797000  1.0
  H  H45  1  0.47777000  0.26342000  0.02876000  1.0
  H  H46  1  0.55966000  0.27181000  0.99067000  1.0
  H  H47  1  0.58111000  0.48344000  0.00508000  1.0
  H  H48  1  0.49806000  0.47481000  0.04227000  1.0
  H  H49  1  0.52767000  0.75449000  0.25433000  1.0
  H  H50  1  0.53745000  0.66958000  0.21309000  1.0
  H  H51  1  0.32833000  0.65836000  0.19093000  1.0
  H  H52  1  0.31966000  0.74388000  0.23168000  1.0
  H  H53  1  0.30810000  0.03043000  0.24286000  1.0
  H  H54  1  0.30921000  0.09750000  0.19834000  1.0
  H  H55  1  0.51487000  0.07635000  0.19145000  1.0
  H  H56  1  0.51342000  0.01104000  0.23656000  1.0
  H  H57  1  0.31654000  0.29560000  0.08101000  1.0
  H  H58  1  0.31210000  0.21230000  0.11840000  1.0
  H  H59  1  0.52293000  0.21548000  0.11974000  1.0
  H  H60  1  0.52709000  0.29891000  0.08233000  1.0
  H  H61  1  0.32546000  0.42140000  0.08541000  1.0
  H  H62  1  0.33280000  0.50754000  0.12649000  1.0
  H  H63  1  0.54436000  0.51677000  0.13142000  1.0
  H  H64  1  0.53680000  0.43049000  0.09023000  1.0
  H  H65  1  0.93719000  0.50877000  0.11640000  1.0
  H  H66  1  0.85653000  0.52063000  0.07366000  1.0
  H  H67  1  0.90048000  0.73179000  0.08550000  1.0
  H  H68  1  0.98150000  0.71907000  0.12793000  1.0
  H  H69  1  0.63148000  0.53087000  0.96143000  1.0
  H  H70  1  0.72017000  0.53049000  0.00080000  1.0
  H  H71  1  0.73940000  0.74265000  0.01036000  1.0
  H  H72  1  0.65018000  0.74275000  0.97090000  1.0
  H  H73  1  0.27597000  0.69263000  0.13754000  1.0
  H  H74  1  0.34549000  0.69964000  0.09389000  1.0
  H  H75  1  0.25004000  0.51077000  0.05757000  1.0
  H  H76  1  0.18278000  0.50328000  0.10203000  1.0
  H  H77  1  0.52223000  0.73658000  0.97124000  1.0
  H  H78  1  0.44035000  0.72820000  0.00933000  1.0
  H  H79  1  0.41890000  0.51657000  0.99492000  1.0
  H  H80  1  0.50194000  0.52520000  0.95773000  1.0
  H  H81  1  0.47233000  0.24551000  0.74567000  1.0
  H  H82  1  0.46255000  0.33042000  0.78691000  1.0
  H  H83  1  0.67168000  0.34164000  0.80907000  1.0
  H  H84  1  0.68034000  0.25612000  0.76832000  1.0
  H  H85  1  0.69191000  0.96958000  0.75714000  1.0
  H  H86  1  0.69080000  0.90251000  0.80166000  1.0
  H  H87  1  0.48513000  0.92365000  0.80855000  1.0
  H  H88  1  0.48658000  0.98897000  0.76344000  1.0
  H  H89  1  0.68347000  0.70440000  0.91899000  1.0
  H  H90  1  0.68790000  0.78771000  0.88160000  1.0
  H  H91  1  0.47707000  0.78453000  0.88026000  1.0
  H  H92  1  0.47292000  0.70109000  0.91767000  1.0
  H  H93  1  0.67455000  0.57861000  0.91459000  1.0
  H  H94  1  0.66721000  0.49246000  0.87351000  1.0
  H  H95  1  0.45565000  0.48323000  0.86858000  1.0
  H  H96  1  0.46321000  0.56952000  0.90977000  1.0
  H  H97  1  0.50877000  0.93718000  0.61640000  1.0
  H  H98  1  0.52062000  0.85653000  0.57366000  1.0
  H  H99  1  0.73178000  0.90048000  0.58550000  1.0
  H  H100  1  0.71907000  0.98150000  0.62793000  1.0
  H  H101  1  0.53089000  0.63149000  0.46143000  1.0
  H  H102  1  0.53049000  0.72016000  0.50080000  1.0
  H  H103  1  0.74265000  0.73941000  0.51037000  1.0
  H  H104  1  0.74276000  0.65020000  0.47090000  1.0
  H  H105  1  0.69262000  0.27597000  0.63754000  1.0
  H  H106  1  0.69964000  0.34548000  0.59389000  1.0
  H  H107  1  0.51076000  0.25004000  0.55757000  1.0
  H  H108  1  0.50327000  0.18278000  0.60204000  1.0
  H  H109  1  0.73660000  0.52224000  0.47124000  1.0
  H  H110  1  0.72820000  0.44034000  0.50933000  1.0
  H  H111  1  0.51658000  0.41891000  0.49492000  1.0
  H  H112  1  0.52521000  0.50196000  0.45773000  1.0
  H  H113  1  0.24552000  0.47233000  0.24566000  1.0
  H  H114  1  0.33043000  0.46255000  0.28691000  1.0
  H  H115  1  0.34164000  0.67168000  0.30906000  1.0
  H  H116  1  0.25612000  0.68035000  0.26832000  1.0
  H  H117  1  0.96958000  0.69192000  0.25714000  1.0
  H  H118  1  0.90251000  0.69080000  0.30166000  1.0
  H  H119  1  0.92365000  0.48513000  0.30856000  1.0
  H  H120  1  0.98896000  0.48659000  0.26344000  1.0
  H  H121  1  0.70442000  0.68348000  0.41899000  1.0
  H  H122  1  0.78771000  0.68791000  0.38159000  1.0
  H  H123  1  0.78452000  0.47708000  0.38026000  1.0
  H  H124  1  0.70110000  0.47293000  0.41767000  1.0
  H  H125  1  0.57861000  0.67456000  0.41459000  1.0
  H  H126  1  0.49246000  0.66722000  0.37351000  1.0
  H  H127  1  0.48325000  0.45565000  0.36858000  1.0
  H  H128  1  0.56954000  0.46322000  0.40977000  1.0
  C  C1  1  0.38675000  0.03572000  0.37530000  1.0
  C  C2  1  0.44280000  0.07124000  0.39058000  1.0
  C  C3  1  0.43619000  0.11607000  0.41436000  1.0
  C  C4  1  0.37306000  0.12680000  0.42343000  1.0
  C  C5  1  0.31689000  0.09129000  0.40776000  1.0
  C  C6  1  0.32388000  0.04630000  0.38409000  1.0
  C  C7  1  0.36302000  0.36513000  0.53732000  1.0
  C  C8  1  0.42239000  0.34483000  0.52816000  1.0
  C  C9  1  0.42292000  0.29474000  0.50591000  1.0
  C  C10  1  0.36335000  0.26318000  0.49159000  1.0
  C  C11  1  0.30366000  0.28395000  0.50056000  1.0
  C  C12  1  0.30389000  0.33420000  0.52288000  1.0
  C  C13  1  0.40255000  0.77488000  0.37757000  1.0
  C  C14  1  0.34700000  0.72907000  0.37997000  1.0
  C  C15  1  0.34287000  0.69067000  0.40437000  1.0
  C  C16  1  0.39402000  0.69791000  0.42734000  1.0
  C  C17  1  0.44964000  0.74433000  0.42488000  1.0
  C  C18  1  0.45389000  0.78182000  0.40015000  1.0
  C  C19  1  0.36838000  0.48272000  0.53899000  1.0
  C  C20  1  0.31173000  0.50074000  0.52387000  1.0
  C  C21  1  0.31616000  0.54683000  0.50234000  1.0
  C  C22  1  0.37822000  0.57686000  0.49516000  1.0
  C  C23  1  0.43514000  0.55885000  0.51035000  1.0
  C  C24  1  0.42997000  0.51213000  0.53153000  1.0
  C  C25  1  0.75427000  0.42316000  0.74559000  1.0
  C  C26  1  0.73324000  0.48462000  0.74022000  1.0
  C  C27  1  0.68605000  0.49001000  0.71726000  1.0
  C  C28  1  0.65843000  0.43373000  0.69907000  1.0
  C  C29  1  0.67976000  0.37198000  0.70464000  1.0
  C  C30  1  0.72726000  0.36704000  0.72752000  1.0
  C  C31  1  0.01693000  0.41069000  0.74250000  1.0
  C  C32  1  0.04118000  0.35305000  0.73153000  1.0
  C  C33  1  0.07825000  0.35366000  0.70665000  1.0
  C  C34  1  0.09150000  0.41214000  0.69177000  1.0
  C  C35  1  0.06661000  0.46988000  0.70288000  1.0
  C  C36  1  0.03023000  0.46912000  0.72799000  1.0
  C  C37  1  0.30317000  0.42205000  0.57856000  1.0
  C  C38  1  0.27755000  0.36185000  0.58908000  1.0
  C  C39  1  0.23075000  0.35910000  0.61026000  1.0
  C  C40  1  0.20788000  0.41725000  0.62201000  1.0
  C  C41  1  0.23252000  0.47765000  0.61099000  1.0
  C  C42  1  0.27942000  0.47970000  0.58980000  1.0
  C  C43  1  0.42090000  0.43064000  0.58392000  1.0
  C  C44  1  0.44248000  0.37367000  0.59512000  1.0
  C  C45  1  0.49080000  0.37742000  0.61841000  1.0
  C  C46  1  0.51914000  0.43905000  0.63176000  1.0
  C  C47  1  0.49622000  0.49643000  0.62116000  1.0
  C  C48  1  0.44770000  0.49189000  0.59781000  1.0
  C  C49  1  0.36357000  0.42534000  0.55968000  1.0
  C  C50  1  0.39369000  0.98607000  0.35045000  1.0
  C  C51  1  0.40621000  0.81700000  0.35174000  1.0
  C  C52  1  0.80486000  0.41760000  0.77013000  1.0
  C  C53  1  0.97577000  0.40927000  0.76868000  1.0
  C  C54  1  0.36438000  0.21375000  0.46829000  1.0
  C  C55  1  0.36717000  0.17278000  0.44760000  1.0
  C  C56  1  0.38378000  0.62166000  0.47243000  1.0
  C  C57  1  0.38943000  0.65817000  0.45197000  1.0
  C  C58  1  0.12971000  0.41333000  0.66656000  1.0
  C  C59  1  0.16434000  0.41518000  0.64532000  1.0
  C  C60  1  0.56853000  0.44121000  0.65529000  1.0
  C  C61  1  0.61037000  0.43854000  0.67564000  1.0
  C  C62  1  0.03572000  0.38675000  0.87530000  1.0
  C  C63  1  0.07124000  0.44280000  0.89058000  1.0
  C  C64  1  0.11607000  0.43619000  0.91436000  1.0
  C  C65  1  0.12680000  0.37306000  0.92343000  1.0
  C  C66  1  0.09129000  0.31688000  0.90776000  1.0
  C  C67  1  0.04629000  0.32387000  0.88409000  1.0
  C  C68  1  0.36514000  0.36303000  0.03732000  1.0
  C  C69  1  0.34484000  0.42240000  0.02816000  1.0
  C  C70  1  0.29474000  0.42293000  0.00591000  1.0
  C  C71  1  0.26318000  0.36335000  0.99159000  1.0
  C  C72  1  0.28396000  0.30367000  0.00056000  1.0
  C  C73  1  0.33421000  0.30390000  0.02288000  1.0
  C  C74  1  0.77487000  0.40255000  0.87758000  1.0
  C  C75  1  0.72907000  0.34700000  0.87997000  1.0
  C  C76  1  0.69067000  0.34286000  0.90437000  1.0
  C  C77  1  0.69791000  0.39402000  0.92734000  1.0
  C  C78  1  0.74433000  0.44963000  0.92488000  1.0
  C  C79  1  0.78182000  0.45389000  0.90015000  1.0
  C  C80  1  0.48273000  0.36839000  0.03899000  1.0
  C  C81  1  0.50075000  0.31174000  0.02387000  1.0
  C  C82  1  0.54683000  0.31617000  0.00234000  1.0
  C  C83  1  0.57686000  0.37822000  0.99516000  1.0
  C  C84  1  0.55886000  0.43515000  0.01035000  1.0
  C  C85  1  0.51215000  0.42999000  0.03153000  1.0
  C  C86  1  0.42316000  0.75427000  0.24559000  1.0
  C  C87  1  0.48462000  0.73324000  0.24022000  1.0
  C  C88  1  0.49001000  0.68605000  0.21726000  1.0
  C  C89  1  0.43373000  0.65843000  0.19906000  1.0
  C  C90  1  0.37198000  0.67976000  0.20464000  1.0
  C  C91  1  0.36704000  0.72726000  0.22751000  1.0
  C  C92  1  0.41069000  0.01694000  0.24250000  1.0
  C  C93  1  0.35305000  0.04118000  0.23153000  1.0
  C  C94  1  0.35366000  0.07825000  0.20664000  1.0
  C  C95  1  0.41215000  0.09150000  0.19177000  1.0
  C  C96  1  0.46988000  0.06661000  0.20288000  1.0
  C  C97  1  0.46912000  0.03023000  0.22799000  1.0
  C  C98  1  0.42207000  0.30318000  0.07856000  1.0
  C  C99  1  0.36187000  0.27756000  0.08908000  1.0
  C  C100  1  0.35910000  0.23076000  0.11025000  1.0
  C  C101  1  0.41725000  0.20788000  0.12201000  1.0
  C  C102  1  0.47765000  0.23252000  0.11099000  1.0
  C  C103  1  0.47971000  0.27943000  0.08980000  1.0
  C  C104  1  0.43065000  0.42091000  0.08392000  1.0
  C  C105  1  0.37368000  0.44249000  0.09512000  1.0
  C  C106  1  0.37743000  0.49081000  0.11841000  1.0
  C  C107  1  0.43906000  0.51914000  0.13176000  1.0
  C  C108  1  0.49644000  0.49623000  0.12116000  1.0
  C  C109  1  0.49190000  0.44772000  0.09781000  1.0
  C  C110  1  0.42536000  0.36358000  0.05968000  1.0
  C  C111  1  0.98607000  0.39369000  0.85045000  1.0
  C  C112  1  0.81700000  0.40621000  0.85174000  1.0
  C  C113  1  0.41760000  0.80486000  0.27012000  1.0
  C  C114  1  0.40927000  0.97577000  0.26868000  1.0
  C  C115  1  0.21375000  0.36438000  0.96830000  1.0
  C  C116  1  0.17278000  0.36717000  0.94761000  1.0
  C  C117  1  0.62166000  0.38378000  0.97243000  1.0
  C  C118  1  0.65816000  0.38942000  0.95197000  1.0
  C  C119  1  0.41334000  0.12971000  0.16656000  1.0
  C  C120  1  0.41518000  0.16434000  0.14532000  1.0
  C  C121  1  0.44121000  0.56854000  0.15530000  1.0
  C  C122  1  0.43854000  0.61037000  0.17564000  1.0
  C  C123  1  0.96429000  0.61326000  0.12470000  1.0
  C  C124  1  0.92877000  0.55721000  0.10942000  1.0
  C  C125  1  0.88394000  0.56382000  0.08564000  1.0
  C  C126  1  0.87321000  0.62695000  0.07657000  1.0
  C  C127  1  0.90871000  0.68312000  0.09224000  1.0
  C  C128  1  0.95371000  0.67614000  0.11591000  1.0
  C  C129  1  0.63486000  0.63698000  0.96268000  1.0
  C  C130  1  0.65517000  0.57760000  0.97184000  1.0
  C  C131  1  0.70527000  0.57707000  0.99409000  1.0
  C  C132  1  0.73682000  0.63666000  0.00841000  1.0
  C  C133  1  0.71604000  0.69634000  0.99944000  1.0
  C  C134  1  0.66580000  0.69611000  0.97712000  1.0
  C  C135  1  0.22513000  0.59746000  0.12242000  1.0
  C  C136  1  0.27094000  0.65301000  0.12003000  1.0
  C  C137  1  0.30934000  0.65714000  0.09563000  1.0
  C  C138  1  0.30210000  0.60599000  0.07266000  1.0
  C  C139  1  0.25568000  0.55037000  0.07512000  1.0
  C  C140  1  0.21819000  0.54612000  0.09985000  1.0
  C  C141  1  0.51727000  0.63161000  0.96101000  1.0
  C  C142  1  0.49926000  0.68826000  0.97613000  1.0
  C  C143  1  0.45318000  0.68383000  0.99766000  1.0
  C  C144  1  0.42315000  0.62178000  0.00484000  1.0
  C  C145  1  0.44114000  0.56486000  0.98965000  1.0
  C  C146  1  0.48786000  0.57002000  0.96847000  1.0
  C  C147  1  0.57685000  0.24574000  0.75441000  1.0
  C  C148  1  0.51539000  0.26676000  0.75978000  1.0
  C  C149  1  0.50999000  0.31395000  0.78274000  1.0
  C  C150  1  0.56628000  0.34158000  0.80094000  1.0
  C  C151  1  0.62803000  0.32024000  0.79536000  1.0
  C  C152  1  0.63296000  0.27274000  0.77249000  1.0
  C  C153  1  0.58931000  0.98307000  0.75750000  1.0
  C  C154  1  0.64695000  0.95883000  0.76847000  1.0
  C  C155  1  0.64635000  0.92176000  0.79336000  1.0
  C  C156  1  0.58786000  0.90851000  0.80823000  1.0
  C  C157  1  0.53012000  0.93339000  0.79712000  1.0
  C  C158  1  0.53088000  0.96978000  0.77201000  1.0
  C  C159  1  0.57794000  0.69683000  0.92144000  1.0
  C  C160  1  0.63814000  0.72245000  0.91092000  1.0
  C  C161  1  0.64090000  0.76925000  0.88975000  1.0
  C  C162  1  0.58275000  0.79212000  0.87799000  1.0
  C  C163  1  0.52235000  0.76749000  0.88901000  1.0
  C  C164  1  0.52030000  0.72058000  0.91020000  1.0
  C  C165  1  0.56936000  0.57909000  0.91608000  1.0
  C  C166  1  0.62633000  0.55752000  0.90488000  1.0
  C  C167  1  0.62258000  0.50920000  0.88159000  1.0
  C  C168  1  0.56095000  0.48086000  0.86824000  1.0
  C  C169  1  0.50357000  0.50378000  0.87884000  1.0
  C  C170  1  0.50811000  0.55229000  0.90219000  1.0
  C  C171  1  0.57465000  0.63642000  0.94032000  1.0
  C  C172  1  0.01394000  0.60632000  0.14955000  1.0
  C  C173  1  0.18301000  0.59380000  0.14826000  1.0
  C  C174  1  0.58240000  0.19514000  0.72988000  1.0
  C  C175  1  0.59074000  0.02423000  0.73132000  1.0
  C  C176  1  0.78626000  0.63563000  0.03170000  1.0
  C  C177  1  0.82723000  0.63284000  0.05239000  1.0
  C  C178  1  0.37835000  0.61623000  0.02757000  1.0
  C  C179  1  0.34185000  0.61058000  0.04803000  1.0
  C  C180  1  0.58667000  0.87030000  0.83344000  1.0
  C  C181  1  0.58482000  0.83567000  0.85468000  1.0
  C  C182  1  0.55879000  0.43147000  0.84470000  1.0
  C  C183  1  0.56146000  0.38964000  0.82436000  1.0
  C  C184  1  0.61325000  0.96429000  0.62470000  1.0
  C  C185  1  0.55720000  0.92877000  0.60942000  1.0
  C  C186  1  0.56382000  0.88393000  0.58564000  1.0
  C  C187  1  0.62694000  0.87320000  0.57657000  1.0
  C  C188  1  0.68312000  0.90871000  0.59224000  1.0
  C  C189  1  0.67613000  0.95371000  0.61591000  1.0
  C  C190  1  0.63699000  0.63488000  0.46268000  1.0
  C  C191  1  0.57761000  0.65517000  0.47184000  1.0
  C  C192  1  0.57708000  0.70527000  0.49409000  1.0
  C  C193  1  0.63666000  0.73682000  0.50841000  1.0
  C  C194  1  0.69634000  0.71605000  0.49944000  1.0
  C  C195  1  0.69612000  0.66581000  0.47712000  1.0
  C  C196  1  0.59745000  0.22513000  0.62243000  1.0
  C  C197  1  0.65301000  0.27094000  0.62003000  1.0
  C  C198  1  0.65714000  0.30933000  0.59563000  1.0
  C  C199  1  0.60598000  0.30209000  0.57266000  1.0
  C  C200  1  0.55037000  0.25568000  0.57512000  1.0
  C  C201  1  0.54611000  0.21819000  0.59985000  1.0
  C  C202  1  0.63163000  0.51729000  0.46101000  1.0
  C  C203  1  0.68828000  0.49927000  0.47613000  1.0
  C  C204  1  0.68384000  0.45318000  0.49766000  1.0
  C  C205  1  0.62178000  0.42315000  0.50484000  1.0
  C  C206  1  0.56487000  0.44115000  0.48965000  1.0
  C  C207  1  0.57003000  0.48787000  0.46847000  1.0
  C  C208  1  0.24574000  0.57685000  0.25441000  1.0
  C  C209  1  0.26677000  0.51539000  0.25978000  1.0
  C  C210  1  0.31396000  0.50999000  0.28274000  1.0
  C  C211  1  0.34158000  0.56628000  0.30093000  1.0
  C  C212  1  0.32024000  0.62803000  0.29536000  1.0
  C  C213  1  0.27274000  0.63297000  0.27248000  1.0
  C  C214  1  0.98307000  0.58932000  0.25750000  1.0
  C  C215  1  0.95883000  0.64696000  0.26847000  1.0
  C  C216  1  0.92176000  0.64635000  0.29335000  1.0
  C  C217  1  0.90851000  0.58786000  0.30823000  1.0
  C  C218  1  0.93339000  0.53013000  0.29712000  1.0
  C  C219  1  0.96978000  0.53089000  0.27201000  1.0
  C  C220  1  0.69684000  0.57795000  0.42144000  1.0
  C  C221  1  0.72246000  0.63815000  0.41092000  1.0
  C  C222  1  0.76925000  0.64091000  0.38974000  1.0
  C  C223  1  0.79212000  0.58276000  0.37799000  1.0
  C  C224  1  0.76749000  0.52236000  0.38901000  1.0
  C  C225  1  0.72058000  0.52031000  0.41020000  1.0
  C  C226  1  0.57911000  0.56937000  0.41608000  1.0
  C  C227  1  0.55752000  0.62634000  0.40488000  1.0
  C  C228  1  0.50920000  0.62258000  0.38159000  1.0
  C  C229  1  0.48087000  0.56095000  0.36824000  1.0
  C  C230  1  0.50379000  0.50358000  0.37884000  1.0
  C  C231  1  0.55230000  0.50812000  0.40219000  1.0
  C  C232  1  0.63644000  0.57466000  0.44032000  1.0
  C  C233  1  0.60632000  0.01394000  0.64955000  1.0
  C  C234  1  0.59380000  0.18301000  0.64826000  1.0
  C  C235  1  0.19515000  0.58240000  0.22987000  1.0
  C  C236  1  0.02424000  0.59074000  0.23132000  1.0
  C  C237  1  0.63562000  0.78626000  0.53171000  1.0
  C  C238  1  0.63283000  0.82723000  0.55240000  1.0
  C  C239  1  0.61623000  0.37835000  0.52757000  1.0
  C  C240  1  0.61058000  0.34184000  0.54803000  1.0
  C  C241  1  0.87029000  0.58667000  0.33344000  1.0
  C  C242  1  0.83567000  0.58483000  0.35468000  1.0
  C  C243  1  0.43147000  0.55880000  0.34471000  1.0
  C  C244  1  0.38964000  0.56146000  0.32436000  1.0
  O  O1  1  0.45177000  0.98099000  0.34212000  1.0
  O  O2  1  0.34072000  0.95140000  0.33938000  1.0
  O  O3  1  0.35326000  0.81744000  0.33504000  1.0
  O  O4  1  0.46173000  0.85033000  0.34829000  1.0
  O  O5  1  0.82816000  0.47033000  0.78591000  1.0
  O  O6  1  0.82169000  0.35988000  0.77373000  1.0
  O  O7  1  0.96115000  0.46465000  0.77969000  1.0
  O  O8  1  0.95722000  0.35279000  0.77814000  1.0
  O  O9  1  0.98099000  0.45177000  0.84212000  1.0
  O  O10  1  0.95140000  0.34072000  0.83938000  1.0
  O  O11  1  0.81743000  0.35325000  0.83504000  1.0
  O  O12  1  0.85033000  0.46173000  0.84829000  1.0
  O  O13  1  0.47033000  0.82816000  0.28591000  1.0
  O  O14  1  0.35988000  0.82169000  0.27373000  1.0
  O  O15  1  0.46465000  0.96116000  0.27969000  1.0
  O  O16  1  0.35279000  0.95722000  0.27814000  1.0
  O  O17  1  0.01902000  0.54824000  0.15788000  1.0
  O  O18  1  0.04861000  0.65929000  0.16062000  1.0
  O  O19  1  0.18257000  0.64675000  0.16496000  1.0
  O  O20  1  0.14968000  0.53828000  0.15171000  1.0
  O  O21  1  0.52968000  0.17185000  0.71409000  1.0
  O  O22  1  0.64013000  0.17831000  0.72627000  1.0
  O  O23  1  0.53535000  0.03885000  0.72031000  1.0
  O  O24  1  0.64721000  0.04278000  0.72186000  1.0
  O  O25  1  0.54824000  0.01902000  0.65788000  1.0
  O  O26  1  0.65929000  0.04861000  0.66062000  1.0
  O  O27  1  0.64675000  0.18257000  0.66496000  1.0
  O  O28  1  0.53828000  0.14968000  0.65171000  1.0
  O  O29  1  0.17185000  0.52968000  0.21409000  1.0
  O  O30  1  0.17832000  0.64013000  0.22627000  1.0
  O  O31  1  0.03886000  0.53536000  0.22031000  1.0
  O  O32  1  0.04279000  0.64722000  0.22186000  1.0
