# generated using pymatgen
data_GdH2C5O6
_symmetry_space_group_name_H-M   'P 1'
_cell_length_a   9.08010000
_cell_length_b   9.08136000
_cell_length_c   15.14295656
_cell_angle_alpha   99.88516883
_cell_angle_beta   100.14019827
_cell_angle_gamma   114.80448000
_symmetry_Int_Tables_number   1
_chemical_formula_structural   GdH2C5O6
_chemical_formula_sum   'Gd4 H8 C20 O24'
_cell_volume   1072.83051192
_cell_formula_units_Z   4
loop_
 _symmetry_equiv_pos_site_id
 _symmetry_equiv_pos_as_xyz
  1  'x, y, z'
loop_
 _atom_site_type_symbol
 _atom_site_label
 _atom_site_symmetry_multiplicity
 _atom_site_fract_x
 _atom_site_fract_y
 _atom_site_fract_z
 _atom_site_occupancy
  Gd  Gd1  1  0.23190000  0.98099000  0.96214000  1.0
  Gd  Gd2  1  0.01893000  0.76816000  0.53787000  1.0
  Gd  Gd3  1  0.76809000  0.01901000  0.03786000  1.0
  Gd  Gd4  1  0.98107000  0.23184000  0.46213000  1.0
  H  H1  1  0.84911000  0.40110000  0.93908000  1.0
  H  H2  1  0.58938000  0.53826000  0.93895000  1.0
  H  H3  1  0.59917000  0.15039000  0.56062000  1.0
  H  H4  1  0.46233000  0.41032000  0.56083000  1.0
  H  H5  1  0.15088000  0.59890000  0.06092000  1.0
  H  H6  1  0.41061000  0.46174000  0.06105000  1.0
  H  H7  1  0.40083000  0.84962000  0.43939000  1.0
  H  H8  1  0.53766000  0.58968000  0.43917000  1.0
  C  C1  1  0.59124000  0.24055000  0.94248000  1.0
  C  C2  1  0.72880000  0.40028000  0.93863000  1.0
  C  C3  1  0.85102000  0.70335000  0.94287000  1.0
  C  C4  1  0.70963000  0.53938000  0.93868000  1.0
  C  C5  1  0.76045000  0.40840000  0.55745000  1.0
  C  C6  1  0.60052000  0.27094000  0.56122000  1.0
  C  C7  1  0.29748000  0.14954000  0.55754000  1.0
  C  C8  1  0.46158000  0.29034000  0.56139000  1.0
  C  C9  1  0.40876000  0.75945000  0.05752000  1.0
  C  C10  1  0.27121000  0.59973000  0.06138000  1.0
  C  C11  1  0.14897000  0.29665000  0.05713000  1.0
  C  C12  1  0.29036000  0.46062000  0.06132000  1.0
  C  C13  1  0.23955000  0.59161000  0.44256000  1.0
  C  C14  1  0.39947000  0.72906000  0.43878000  1.0
  C  C15  1  0.70252000  0.85047000  0.44247000  1.0
  C  C16  1  0.53842000  0.70967000  0.43862000  1.0
  C  C17  1  0.07582000  0.92627000  0.74982000  1.0
  C  C18  1  0.17684000  0.82322000  0.75024000  1.0
  C  C19  1  0.92417000  0.07373000  0.25018000  1.0
  C  C20  1  0.82315000  0.17678000  0.24976000  1.0
  O  O1  1  0.62690000  0.11828000  0.94759000  1.0
  O  O2  1  0.44657000  0.22789000  0.94199000  1.0
  O  O3  1  0.07285000  0.99818000  0.82851000  1.0
  O  O4  1  0.82050000  0.83064000  0.94844000  1.0
  O  O5  1  0.99528000  0.71579000  0.94232000  1.0
  O  O6  1  0.25879000  0.83039000  0.82925000  1.0
  O  O7  1  0.88278000  0.37294000  0.55238000  1.0
  O  O8  1  0.77338000  0.55317000  0.55821000  1.0
  O  O9  1  0.00465000  0.92960000  0.67078000  1.0
  O  O10  1  0.17102000  0.18147000  0.55230000  1.0
  O  O11  1  0.28410000  0.00500000  0.55821000  1.0
  O  O12  1  0.16813000  0.74012000  0.67147000  1.0
  O  O13  1  0.37309000  0.88172000  0.05241000  1.0
  O  O14  1  0.55342000  0.77211000  0.05801000  1.0
  O  O15  1  0.92714000  0.00182000  0.17149000  1.0
  O  O16  1  0.17950000  0.16937000  0.05157000  1.0
  O  O17  1  0.00471000  0.28421000  0.05768000  1.0
  O  O18  1  0.74120000  0.16961000  0.17075000  1.0
  O  O19  1  0.11721000  0.62706000  0.44762000  1.0
  O  O20  1  0.22661000  0.44683000  0.44179000  1.0
  O  O21  1  0.99534000  0.07040000  0.32922000  1.0
  O  O22  1  0.82897000  0.81853000  0.44770000  1.0
  O  O23  1  0.71590000  0.99501000  0.44180000  1.0
  O  O24  1  0.83186000  0.25988000  0.32853000  1.0
