# generated using pymatgen
data_Cd2H9C23O10
_symmetry_space_group_name_H-M   'P 1'
_cell_length_a   11.40210000
_cell_length_b   23.16688000
_cell_length_c   29.43468000
_cell_angle_alpha   89.99683000
_cell_angle_beta   89.99592000
_cell_angle_gamma   89.98351000
_symmetry_Int_Tables_number   1
_chemical_formula_structural   Cd2H9C23O10
_chemical_formula_sum   'Cd16 H72 C184 O80'
_cell_volume   7775.20222989
_cell_formula_units_Z   8
loop_
 _symmetry_equiv_pos_site_id
 _symmetry_equiv_pos_as_xyz
  1  'x, y, z'
loop_
 _atom_site_type_symbol
 _atom_site_label
 _atom_site_symmetry_multiplicity
 _atom_site_fract_x
 _atom_site_fract_y
 _atom_site_fract_z
 _atom_site_occupancy
  Cd  Cd0  1  0.55460000  0.19266000  0.11888000  1
  Cd  Cd1  1  0.74745000  0.09512000  0.06604000  1
  Cd  Cd2  1  0.94552000  0.19271000  0.38113000  1
  Cd  Cd3  1  0.75228000  0.09500000  0.43369000  1
  Cd  Cd4  1  0.05408000  0.30733000  0.88108000  1
  Cd  Cd5  1  0.24762000  0.40495000  0.93387000  1
  Cd  Cd6  1  0.44567000  0.30726000  0.61875000  1
  Cd  Cd7  1  0.25238000  0.40492000  0.56618000  1
  Cd  Cd8  1  0.44547000  0.80725000  0.88115000  1
  Cd  Cd9  1  0.25249000  0.90492000  0.93392000  1
  Cd  Cd10  1  0.05395000  0.80720000  0.61884000  1
  Cd  Cd11  1  0.24750000  0.90490000  0.56645000  1
  Cd  Cd12  1  0.94520000  0.69269000  0.11875000  1
  Cd  Cd13  1  0.75230000  0.59501000  0.06621000  1
  Cd  Cd14  1  0.55445000  0.69271000  0.38118000  1
  Cd  Cd15  1  0.74737000  0.59511000  0.43394000  1
  H  H16  1  0.57091000  0.03934000  0.23620000  1
  H  H17  1  0.58970000  0.85740000  0.20257000  1
  H  H18  1  0.56746000  0.98642000  0.09743000  1
  H  H19  1  0.60396000  0.89533000  0.40475000  1
  H  H20  1  0.63546000  0.01840000  0.29690000  1
  H  H21  1  0.53576000  0.84110000  0.26807000  1
  H  H22  1  0.55551000  0.75306000  0.01599000  1
  H  H23  1  0.67926000  0.80738000  0.14686000  1
  H  H24  1  0.46198000  0.92106000  0.06513000  1
  H  H25  1  0.92898000  0.03924000  0.26370000  1
  H  H26  1  0.91015000  0.85731000  0.29736000  1
  H  H27  1  0.93262000  0.98643000  0.40246000  1
  H  H28  1  0.89618000  0.89530000  0.09514000  1
  H  H29  1  0.86468000  0.01854000  0.20293000  1
  H  H30  1  0.96394000  0.84117000  0.23185000  1
  H  H31  1  0.94469000  0.75315000  0.48409000  1
  H  H32  1  0.82079000  0.80731000  0.35320000  1
  H  H33  1  0.03810000  0.92108000  0.43484000  1
  H  H34  1  0.07085000  0.46071000  0.76379000  1
  H  H35  1  0.08988000  0.64265000  0.79743000  1
  H  H36  1  0.06737000  0.51361000  0.90256000  1
  H  H37  1  0.10336000  0.60467000  0.59522000  1
  H  H38  1  0.13598000  0.48156000  0.70303000  1
  H  H39  1  0.03530000  0.65876000  0.73193000  1
  H  H40  1  0.05536000  0.74682000  0.98410000  1
  H  H41  1  0.17917000  0.69265000  0.85320000  1
  H  H42  1  0.96199000  0.57890000  0.93492000  1
  H  H43  1  0.42892000  0.46068000  0.73622000  1
  H  H44  1  0.41015000  0.64263000  0.70263000  1
  H  H45  1  0.43238000  0.51364000  0.59747000  1
  H  H46  1  0.39652000  0.60467000  0.90482000  1
  H  H47  1  0.36414000  0.48156000  0.79699000  1
  H  H48  1  0.46426000  0.65880000  0.76811000  1
  H  H49  1  0.44441000  0.74696000  0.51600000  1
  H  H50  1  0.32058000  0.69261000  0.64688000  1
  H  H51  1  0.53786000  0.57893000  0.56516000  1
  H  H52  1  0.42904000  0.96069000  0.76380000  1
  H  H53  1  0.41028000  0.14261000  0.79748000  1
  H  H54  1  0.43251000  0.01355000  0.90260000  1
  H  H55  1  0.39634000  0.10468000  0.59529000  1
  H  H56  1  0.36420000  0.98170000  0.70319000  1
  H  H57  1  0.46444000  0.15894000  0.73198000  1
  H  H58  1  0.44447000  0.24693000  0.98401000  1
  H  H59  1  0.32064000  0.19255000  0.85315000  1
  H  H60  1  0.53799000  0.07893000  0.93490000  1
  H  H61  1  0.07109000  0.96083000  0.73632000  1
  H  H62  1  0.08990000  0.14275000  0.70264000  1
  H  H63  1  0.06749000  0.01364000  0.59754000  1
  H  H64  1  0.10319000  0.10480000  0.90492000  1
  H  H65  1  0.13578000  0.98165000  0.79709000  1
  H  H66  1  0.03553000  0.15889000  0.76816000  1
  H  H67  1  0.05527000  0.24683000  0.51592000  1
  H  H68  1  0.17916000  0.19269000  0.64682000  1
  H  H69  1  0.96200000  0.07889000  0.56516000  1
  H  H70  1  0.92907000  0.53929000  0.23618000  1
  H  H71  1  0.91022000  0.35734000  0.20258000  1
  H  H72  1  0.93260000  0.48635000  0.09743000  1
  H  H73  1  0.89616000  0.39535000  0.40479000  1
  H  H74  1  0.86467000  0.51856000  0.29702000  1
  H  H75  1  0.96400000  0.34118000  0.26809000  1
  H  H76  1  0.94465000  0.25316000  0.01588000  1
  H  H77  1  0.82097000  0.30730000  0.14682000  1
  H  H78  1  0.03807000  0.42106000  0.06508000  1
  H  H79  1  0.57099000  0.53932000  0.26374000  1
  H  H80  1  0.58983000  0.35738000  0.29737000  1
  H  H81  1  0.56768000  0.48641000  0.40251000  1
  H  H82  1  0.60370000  0.39528000  0.09516000  1
  H  H83  1  0.63558000  0.51838000  0.20301000  1
  H  H84  1  0.53580000  0.34112000  0.23188000  1
  H  H85  1  0.55548000  0.25308000  0.48402000  1
  H  H86  1  0.67926000  0.30732000  0.35311000  1
  H  H87  1  0.46219000  0.42111000  0.43487000  1
  C  C88  1  0.55986000  0.08029000  0.15148000  1
  C  C89  1  0.56900000  0.01836000  0.16575000  1
  C  C90  1  0.57513000  0.00415000  0.21178000  1
  C  C91  1  0.58341000  0.94572000  0.22597000  1
  C  C92  1  0.58450000  0.90246000  0.19249000  1
  C  C93  1  0.57591000  0.91573000  0.14607000  1
  C  C94  1  0.56950000  0.97459000  0.13313000  1
  C  C95  1  0.54163000  0.80327000  0.35367000  1
  C  C96  1  0.65881000  0.00829000  0.38511000  1
  C  C97  1  0.56588000  0.86309000  0.33732000  1
  C  C98  1  0.59777000  0.90583000  0.36882000  1
  C  C99  1  0.62160000  0.96168000  0.35331000  1
  C  C100  1  0.61523000  0.97443000  0.30703000  1
  C  C101  1  0.58650000  0.93170000  0.27479000  1
  C  C102  1  0.56111000  0.87572000  0.29101000  1
  C  C103  1  0.43629000  0.85008000  0.99294000  1
  C  C104  1  0.68200000  0.71751000  0.08868000  1
  C  C105  1  0.50306000  0.83888000  0.03633000  1
  C  C106  1  0.55893000  0.78565000  0.04251000  1
  C  C107  1  0.62026000  0.77447000  0.08292000  1
  C  C108  1  0.62733000  0.81663000  0.11671000  1
  C  C109  1  0.57187000  0.87058000  0.11091000  1
  C  C110  1  0.50930000  0.88085000  0.07022000  1
  C  C111  1  0.93995000  0.08027000  0.34817000  1
  C  C112  1  0.93078000  0.01827000  0.33412000  1
  C  C113  1  0.92467000  0.00404000  0.28811000  1
  C  C114  1  0.91648000  0.94565000  0.27390000  1
  C  C115  1  0.91547000  0.90236000  0.30741000  1
  C  C116  1  0.92414000  0.91565000  0.35384000  1
  C  C117  1  0.93049000  0.97453000  0.36676000  1
  C  C118  1  0.95806000  0.80329000  0.14634000  1
  C  C119  1  0.84113000  0.00796000  0.11436000  1
  C  C120  1  0.93420000  0.86316000  0.16258000  1
  C  C121  1  0.90235000  0.90586000  0.13106000  1
  C  C122  1  0.87832000  0.96173000  0.14651000  1
  C  C123  1  0.88469000  0.97454000  0.19279000  1
  C  C124  1  0.91339000  0.93177000  0.22506000  1
  C  C125  1  0.93891000  0.87580000  0.20888000  1
  C  C126  1  0.06382000  0.85004000  0.50708000  1
  C  C127  1  0.81792000  0.71755000  0.41134000  1
  C  C128  1  0.99702000  0.83890000  0.46365000  1
  C  C129  1  0.94115000  0.78567000  0.45752000  1
  C  C130  1  0.87985000  0.77446000  0.41711000  1
  C  C131  1  0.87287000  0.81659000  0.38330000  1
  C  C132  1  0.92825000  0.87054000  0.38905000  1
  C  C133  1  0.99076000  0.88089000  0.42976000  1
  C  C134  1  0.05995000  0.41969000  0.84850000  1
  C  C135  1  0.06904000  0.48164000  0.83424000  1
  C  C136  1  0.07523000  0.49587000  0.78821000  1
  C  C137  1  0.08360000  0.55430000  0.77400000  1
  C  C138  1  0.08458000  0.59758000  0.80747000  1
  C  C139  1  0.07591000  0.58428000  0.85389000  1
  C  C140  1  0.06948000  0.52542000  0.86684000  1
  C  C141  1  0.03973000  0.69657000  0.64621000  1
  C  C142  1  0.15884000  0.49206000  0.61450000  1
  C  C143  1  0.06454000  0.63679000  0.66261000  1
  C  C144  1  0.09713000  0.59415000  0.63115000  1
  C  C145  1  0.12182000  0.53835000  0.64662000  1
  C  C146  1  0.11570000  0.52554000  0.69290000  1
  C  C147  1  0.08674000  0.56825000  0.72515000  1
  C  C148  1  0.06051000  0.62418000  0.70895000  1
  C  C149  1  0.93618000  0.65007000  0.00705000  1
  C  C150  1  0.18211000  0.78246000  0.91135000  1
  C  C151  1  0.00308000  0.66112000  0.96365000  1
  C  C152  1  0.05899000  0.71432000  0.95751000  1
  C  C153  1  0.12033000  0.72552000  0.91712000  1
  C  C154  1  0.12724000  0.68336000  0.88333000  1
  C  C155  1  0.07187000  0.62939000  0.88909000  1
  C  C156  1  0.00936000  0.61908000  0.92980000  1
  C  C157  1  0.44002000  0.41970000  0.65154000  1
  C  C158  1  0.43090000  0.48166000  0.66579000  1
  C  C159  1  0.42470000  0.49587000  0.71181000  1
  C  C160  1  0.41637000  0.55429000  0.72603000  1
  C  C161  1  0.41532000  0.59757000  0.69254000  1
  C  C162  1  0.42397000  0.58431000  0.64611000  1
  C  C163  1  0.43041000  0.52545000  0.63318000  1
  C  C164  1  0.45891000  0.69671000  0.85362000  1
  C  C165  1  0.34130000  0.49195000  0.88546000  1
  C  C166  1  0.43445000  0.63687000  0.83737000  1
  C  C167  1  0.40260000  0.59415000  0.86888000  1
  C  C168  1  0.37858000  0.53828000  0.85343000  1
  C  C169  1  0.38457000  0.52550000  0.80714000  1
  C  C170  1  0.41332000  0.56823000  0.77487000  1
  C  C171  1  0.43896000  0.62419000  0.79106000  1
  C  C172  1  0.56372000  0.64986000  0.49297000  1
  C  C173  1  0.31764000  0.78244000  0.58876000  1
  C  C174  1  0.49692000  0.66114000  0.53635000  1
  C  C175  1  0.44095000  0.71436000  0.54252000  1
  C  C176  1  0.37956000  0.72553000  0.58294000  1
  C  C177  1  0.37253000  0.68338000  0.61673000  1
  C  C178  1  0.42803000  0.62945000  0.61093000  1
  C  C179  1  0.49062000  0.61916000  0.57023000  1
  C  C180  1  0.44009000  0.91968000  0.84854000  1
  C  C181  1  0.43099000  0.98162000  0.83427000  1
  C  C182  1  0.42484000  0.99586000  0.78824000  1
  C  C183  1  0.41657000  0.05431000  0.77408000  1
  C  C184  1  0.41545000  0.09755000  0.80756000  1
  C  C185  1  0.42405000  0.08425000  0.85397000  1
  C  C186  1  0.43047000  0.02538000  0.86689000  1
  C  C187  1  0.45911000  0.19673000  0.64639000  1
  C  C188  1  0.34119000  0.99153000  0.61503000  1
  C  C189  1  0.43442000  0.13693000  0.66272000  1
  C  C190  1  0.40243000  0.09417000  0.63122000  1
  C  C191  1  0.37831000  0.03832000  0.64673000  1
  C  C192  1  0.38463000  0.02564000  0.69304000  1
  C  C193  1  0.41349000  0.06836000  0.72527000  1
  C  C194  1  0.43908000  0.12433000  0.70905000  1
  C  C195  1  0.56370000  0.14999000  0.00706000  1
  C  C196  1  0.31778000  0.28244000  0.91127000  1
  C  C197  1  0.49686000  0.16112000  0.96367000  1
  C  C198  1  0.44097000  0.21435000  0.95748000  1
  C  C199  1  0.37961000  0.22551000  0.91707000  1
  C  C200  1  0.37259000  0.18333000  0.88330000  1
  C  C201  1  0.42808000  0.12939000  0.88912000  1
  C  C202  1  0.49064000  0.11913000  0.92981000  1
  C  C203  1  0.06015000  0.91973000  0.65192000  1
  C  C204  1  0.06927000  0.98176000  0.66591000  1
  C  C205  1  0.07538000  0.99604000  0.71192000  1
  C  C206  1  0.08370000  0.05444000  0.72611000  1
  C  C207  1  0.08462000  0.09769000  0.69260000  1
  C  C208  1  0.07592000  0.08436000  0.64618000  1
  C  C209  1  0.06957000  0.02549000  0.63325000  1
  C  C210  1  0.03921000  0.19691000  0.85354000  1
  C  C211  1  0.15880000  0.99216000  0.88563000  1
  C  C212  1  0.06451000  0.13698000  0.83749000  1
  C  C213  1  0.09706000  0.09433000  0.86897000  1
  C  C214  1  0.12169000  0.03848000  0.85351000  1
  C  C215  1  0.11564000  0.02564000  0.80723000  1
  C  C216  1  0.08684000  0.06838000  0.77496000  1
  C  C217  1  0.06065000  0.12429000  0.79115000  1
  C  C218  1  0.93619000  0.15003000  0.49294000  1
  C  C219  1  0.18214000  0.28246000  0.58867000  1
  C  C220  1  0.00306000  0.16110000  0.53637000  1
  C  C221  1  0.05892000  0.21433000  0.54251000  1
  C  C222  1  0.12023000  0.22555000  0.58291000  1
  C  C223  1  0.12718000  0.18341000  0.61671000  1
  C  C224  1  0.07178000  0.12945000  0.61096000  1
  C  C225  1  0.00933000  0.11910000  0.57025000  1
  C  C226  1  0.94015000  0.58027000  0.15150000  1
  C  C227  1  0.93098000  0.51833000  0.16574000  1
  C  C228  1  0.92480000  0.50411000  0.21178000  1
  C  C229  1  0.91652000  0.44570000  0.22601000  1
  C  C230  1  0.91551000  0.40242000  0.19254000  1
  C  C231  1  0.92413000  0.41570000  0.14611000  1
  C  C232  1  0.93054000  0.47456000  0.13314000  1
  C  C233  1  0.95927000  0.30334000  0.35368000  1
  C  C234  1  0.84101000  0.50793000  0.38558000  1
  C  C235  1  0.93447000  0.36314000  0.33737000  1
  C  C236  1  0.90243000  0.40585000  0.36886000  1
  C  C237  1  0.87833000  0.46172000  0.35341000  1
  C  C238  1  0.88474000  0.47456000  0.30714000  1
  C  C239  1  0.91339000  0.43180000  0.27487000  1
  C  C240  1  0.93893000  0.37581000  0.29106000  1
  C  C241  1  0.06387000  0.34993000  0.99297000  1
  C  C242  1  0.81793000  0.21751000  0.08865000  1
  C  C243  1  0.99697000  0.33886000  0.03636000  1
  C  C244  1  0.94105000  0.28565000  0.04249000  1
  C  C245  1  0.87974000  0.27445000  0.08288000  1
  C  C246  1  0.87284000  0.31660000  0.11669000  1
  C  C247  1  0.92820000  0.37058000  0.11092000  1
  C  C248  1  0.99069000  0.38088000  0.07021000  1
  C  C249  1  0.55990000  0.58029000  0.34847000  1
  C  C250  1  0.56905000  0.51836000  0.33420000  1
  C  C251  1  0.57521000  0.50414000  0.28816000  1
  C  C252  1  0.58354000  0.44571000  0.27398000  1
  C  C253  1  0.58467000  0.40243000  0.30746000  1
  C  C254  1  0.57605000  0.41571000  0.35389000  1
  C  C255  1  0.56963000  0.47458000  0.36681000  1
  C  C256  1  0.54181000  0.30319000  0.14642000  1
  C  C257  1  0.65873000  0.50813000  0.11469000  1
  C  C258  1  0.56579000  0.36307000  0.16263000  1
  C  C259  1  0.59755000  0.40580000  0.13110000  1
  C  C260  1  0.62144000  0.46165000  0.14658000  1
  C  C261  1  0.61529000  0.47443000  0.19287000  1
  C  C262  1  0.58656000  0.43171000  0.22514000  1
  C  C263  1  0.56105000  0.37576000  0.20894000  1
  C  C264  1  0.43633000  0.35014000  0.50708000  1
  C  C265  1  0.68213000  0.21752000  0.41127000  1
  C  C266  1  0.50310000  0.33891000  0.46367000  1
  C  C267  1  0.55900000  0.28567000  0.45749000  1
  C  C268  1  0.62034000  0.27447000  0.41707000  1
  C  C269  1  0.62740000  0.31662000  0.38328000  1
  C  C270  1  0.57198000  0.37058000  0.38908000  1
  C  C271  1  0.50939000  0.38087000  0.42977000  1
  O  O272  1  0.57112000  0.09150000  0.10846000  1
  O  O273  1  0.53987000  0.11948000  0.17993000  1
  O  O274  1  0.53249000  0.76253000  0.32463000  1
  O  O275  1  0.53558000  0.79370000  0.39624000  1
  O  O276  1  0.65603000  0.06026000  0.37043000  1
  O  O277  1  0.69621000  0.99595000  0.42484000  1
  O  O278  1  0.45260000  0.81454000  0.96095000  1
  O  O279  1  0.36886000  0.89439000  0.99320000  1
  O  O280  1  0.74931000  0.71132000  0.12260000  1
  O  O281  1  0.66010000  0.67936000  0.05842000  1
  O  O282  1  0.92894000  0.09164000  0.39120000  1
  O  O283  1  0.95963000  0.11922000  0.31951000  1
  O  O284  1  0.96603000  0.76255000  0.17541000  1
  O  O285  1  0.96434000  0.79364000  0.10378000  1
  O  O286  1  0.84422000  0.06022000  0.12851000  1
  O  O287  1  0.80342000  0.99490000  0.07488000  1
  O  O288  1  0.04745000  0.81444000  0.53901000  1
  O  O289  1  0.13108000  0.89438000  0.50690000  1
  O  O290  1  0.75074000  0.71133000  0.37739000  1
  O  O291  1  0.83967000  0.67948000  0.44168000  1
  O  O292  1  0.07112000  0.40847000  0.89152000  1
  O  O293  1  0.04008000  0.38052000  0.82003000  1
  O  O294  1  0.02877000  0.73727000  0.67522000  1
  O  O295  1  0.03578000  0.70621000  0.60361000  1
  O  O296  1  0.15557000  0.43985000  0.62876000  1
  O  O297  1  0.19649000  0.50503000  0.57497000  1
  O  O298  1  0.95240000  0.68569000  0.03899000  1
  O  O299  1  0.86891000  0.60573000  0.00683000  1
  O  O300  1  0.24932000  0.78868000  0.87739000  1
  O  O301  1  0.16030000  0.82054000  0.94167000  1
  O  O302  1  0.42885000  0.40850000  0.60851000  1
  O  O303  1  0.45997000  0.38052000  0.67999000  1
  O  O304  1  0.46906000  0.73739000  0.82458000  1
  O  O305  1  0.46430000  0.70637000  0.89620000  1
  O  O306  1  0.34429000  0.43979000  0.87107000  1
  O  O307  1  0.30367000  0.50484000  0.92501000  1
  O  O308  1  0.54722000  0.68530000  0.46092000  1
  O  O309  1  0.63134000  0.60563000  0.49328000  1
  O  O310  1  0.25030000  0.78863000  0.62266000  1
  O  O311  1  0.33980000  0.82068000  0.55858000  1
  O  O312  1  0.42884000  0.90849000  0.89156000  1
  O  O313  1  0.46006000  0.88047000  0.82010000  1
  O  O314  1  0.46962000  0.23744000  0.67540000  1
  O  O315  1  0.46427000  0.20634000  0.60381000  1
  O  O316  1  0.34394000  0.93963000  0.62978000  1
  O  O317  1  0.30387000  0.00345000  0.57519000  1
  O  O318  1  0.54747000  0.18553000  0.03902000  1
  O  O319  1  0.63106000  0.10563000  0.00680000  1
  O  O320  1  0.25041000  0.28866000  0.87737000  1
  O  O321  1  0.33989000  0.32060000  0.94150000  1
  O  O322  1  0.07111000  0.90831000  0.60888000  1
  O  O323  1  0.04052000  0.88082000  0.68062000  1
  O  O324  1  0.02703000  0.23721000  0.82433000  1
  O  O325  1  0.03609000  0.20725000  0.89609000  1
  O  O326  1  0.15554000  0.93990000  0.87145000  1
  O  O327  1  0.19652000  0.00512000  0.92513000  1
  O  O328  1  0.95250000  0.18563000  0.46100000  1
  O  O329  1  0.86891000  0.10568000  0.49315000  1
  O  O330  1  0.24935000  0.28868000  0.62261000  1
  O  O331  1  0.16033000  0.32052000  0.55833000  1
  O  O332  1  0.92879000  0.59153000  0.10849000  1
  O  O333  1  0.96028000  0.61941000  0.17997000  1
  O  O334  1  0.97015000  0.26267000  0.32464000  1
  O  O335  1  0.96403000  0.29367000  0.39625000  1
  O  O336  1  0.84386000  0.56017000  0.37138000  1
  O  O337  1  0.80350000  0.49487000  0.42510000  1
  O  O338  1  0.04773000  0.31433000  0.96102000  1
  O  O339  1  0.13108000  0.39431000  0.99320000  1
  O  O340  1  0.75079000  0.21127000  0.12262000  1
  O  O341  1  0.83961000  0.17948000  0.05827000  1
  O  O342  1  0.57104000  0.59147000  0.39150000  1
  O  O343  1  0.53994000  0.61951000  0.32004000  1
  O  O344  1  0.53349000  0.26250000  0.17553000  1
  O  O345  1  0.53551000  0.29344000  0.10388000  1
  O  O346  1  0.65587000  0.56018000  0.12928000  1
  O  O347  1  0.69628000  0.49549000  0.07506000  1
  O  O348  1  0.45299000  0.31468000  0.53911000  1
  O  O349  1  0.36860000  0.39431000  0.50679000  1
  O  O350  1  0.74942000  0.21131000  0.37735000  1
  O  O351  1  0.66017000  0.17936000  0.44153000  1
