# generated using pymatgen
data_InHC8O5F4
_symmetry_space_group_name_H-M   'P 1'
_cell_length_a   11.21700000
_cell_length_b   11.22259000
_cell_length_c   14.30202000
_cell_angle_alpha   71.67885000
_cell_angle_beta   71.71216000
_cell_angle_gamma   85.99929000
_symmetry_Int_Tables_number   1
_chemical_formula_structural   InHC8O5F4
_chemical_formula_sum   'In4 H4 C32 O20 F16'
_cell_volume   1621.97260369
_cell_formula_units_Z   4
loop_
 _symmetry_equiv_pos_site_id
 _symmetry_equiv_pos_as_xyz
  1  'x, y, z'
loop_
 _atom_site_type_symbol
 _atom_site_label
 _atom_site_symmetry_multiplicity
 _atom_site_fract_x
 _atom_site_fract_y
 _atom_site_fract_z
 _atom_site_occupancy
  In  In1  1  0.00000000  0.00000000  0.50000000  1.0
  In  In2  1  0.00000000  0.00000000  0.00000000  1.0
  In  In3  1  0.95643000  0.04350000  0.74998000  1.0
  In  In4  1  0.04357000  0.95650000  0.25002000  1.0
  H  H1  1  0.09310000  0.15363000  0.56410000  1.0
  H  H2  1  0.84636000  0.90689000  0.93589000  1.0
  H  H3  1  0.90690000  0.84638000  0.43590000  1.0
  H  H4  1  0.15364000  0.09312000  0.06411000  1.0
  C  C1  1  0.72378000  0.91405000  0.56812000  1.0
  C  C2  1  0.58740000  0.93252000  0.62379000  1.0
  C  C3  1  0.53817000  0.05317000  0.60424000  1.0
  C  C4  1  0.41643000  0.07553000  0.65845000  1.0
  C  C5  1  0.33947000  0.97708000  0.73635000  1.0
  C  C6  1  0.38696000  0.85602000  0.75597000  1.0
  C  C7  1  0.50785000  0.83386000  0.69909000  1.0
  C  C8  1  0.20919000  0.00108000  0.79324000  1.0
  C  C9  1  0.08597000  0.27621000  0.93189000  1.0
  C  C10  1  0.06749000  0.41257000  0.87619000  1.0
  C  C11  1  0.94683000  0.46181000  0.89577000  1.0
  C  C12  1  0.92446000  0.58356000  0.84159000  1.0
  C  C13  1  0.02291000  0.66054000  0.76372000  1.0
  C  C14  1  0.14399000  0.61304000  0.74406000  1.0
  C  C15  1  0.16616000  0.49213000  0.80091000  1.0
  C  C16  1  0.99893000  0.79080000  0.70683000  1.0
  C  C17  1  0.27623000  0.08595000  0.43188000  1.0
  C  C18  1  0.41260000  0.06749000  0.37621000  1.0
  C  C19  1  0.46184000  0.94684000  0.39576000  1.0
  C  C20  1  0.58357000  0.92448000  0.34155000  1.0
  C  C21  1  0.66053000  0.02293000  0.26365000  1.0
  C  C22  1  0.61304000  0.14399000  0.24403000  1.0
  C  C23  1  0.49215000  0.16615000  0.30091000  1.0
  C  C24  1  0.79081000  0.99893000  0.20676000  1.0
  C  C25  1  0.91404000  0.72379000  0.06811000  1.0
  C  C26  1  0.93251000  0.58743000  0.12381000  1.0
  C  C27  1  0.05317000  0.53819000  0.10424000  1.0
  C  C28  1  0.07554000  0.41645000  0.15841000  1.0
  C  C29  1  0.97709000  0.33947000  0.23628000  1.0
  C  C30  1  0.85601000  0.38697000  0.25594000  1.0
  C  C31  1  0.83384000  0.50787000  0.19909000  1.0
  C  C32  1  0.00108000  0.20920000  0.29317000  1.0
  O  O1  1  0.80104000  0.98020000  0.58494000  1.0
  O  O2  1  0.75116000  0.84293000  0.51350000  1.0
  O  O3  1  0.16974000  0.95039000  0.89006000  1.0
  O  O4  1  0.14695000  0.07258000  0.73652000  1.0
  O  O5  1  0.00095000  0.12744000  0.59255000  1.0
  O  O6  1  0.01983000  0.19897000  0.91505000  1.0
  O  O7  1  0.15710000  0.24884000  0.98657000  1.0
  O  O8  1  0.04962000  0.83027000  0.61001000  1.0
  O  O9  1  0.92744000  0.85303000  0.76351000  1.0
  O  O10  1  0.87254000  0.99903000  0.90740000  1.0
  O  O11  1  0.19897000  0.01980000  0.41506000  1.0
  O  O12  1  0.24885000  0.15708000  0.48650000  1.0
  O  O13  1  0.83026000  0.04962000  0.10994000  1.0
  O  O14  1  0.85306000  0.92742000  0.26348000  1.0
  O  O15  1  0.99906000  0.87256000  0.40745000  1.0
  O  O16  1  0.98017000  0.80103000  0.08496000  1.0
  O  O17  1  0.84290000  0.75116000  0.01343000  1.0
  O  O18  1  0.95038000  0.16973000  0.38999000  1.0
  O  O19  1  0.07256000  0.14698000  0.23649000  1.0
  O  O20  1  0.12746000  0.00098000  0.09260000  1.0
  F  F1  1  0.60780000  0.15205000  0.53153000  1.0
  F  F2  1  0.37596000  0.19379000  0.63884000  1.0
  F  F3  1  0.31529000  0.75779000  0.82854000  1.0
  F  F4  1  0.54638000  0.71491000  0.72192000  1.0
  F  F5  1  0.84794000  0.39217000  0.96848000  1.0
  F  F6  1  0.80619000  0.62405000  0.86117000  1.0
  F  F7  1  0.24221000  0.68470000  0.67147000  1.0
  F  F8  1  0.28513000  0.45361000  0.77808000  1.0
  F  F9  1  0.39220000  0.84796000  0.46848000  1.0
  F  F10  1  0.62405000  0.80622000  0.36116000  1.0
  F  F11  1  0.68471000  0.24222000  0.17146000  1.0
  F  F12  1  0.45362000  0.28510000  0.27808000  1.0
  F  F13  1  0.15206000  0.60784000  0.03152000  1.0
  F  F14  1  0.19382000  0.37596000  0.13884000  1.0
  F  F15  1  0.75779000  0.31530000  0.32853000  1.0
  F  F16  1  0.71487000  0.54640000  0.22193000  1.0
