# generated using pymatgen
data_CdNiH21C13N6
_symmetry_space_group_name_H-M   'P 1'
_cell_length_a   7.31860000
_cell_length_b   11.44841000
_cell_length_c   13.97707000
_cell_angle_alpha   113.59866000
_cell_angle_beta   92.53408000
_cell_angle_gamma   105.55323000
_symmetry_Int_Tables_number   1
_chemical_formula_structural   CdNiH21C13N6
_chemical_formula_sum   'Cd2 Ni2 H42 C26 N12'
_cell_volume   1018.50647285
_cell_formula_units_Z   2
loop_
 _symmetry_equiv_pos_site_id
 _symmetry_equiv_pos_as_xyz
  1  'x, y, z'
loop_
 _atom_site_type_symbol
 _atom_site_label
 _atom_site_symmetry_multiplicity
 _atom_site_fract_x
 _atom_site_fract_y
 _atom_site_fract_z
 _atom_site_occupancy
  Cd  Cd0  1  0.99539000  0.99904000  0.99860000  1
  Cd  Cd1  1  0.99933000  0.99904000  0.50005000  1
  Ni  Ni2  1  0.50973000  0.07011000  0.26028000  1
  Ni  Ni3  1  0.48638000  0.92222000  0.73721000  1
  H  H4  1  0.22827000  0.19279000  0.93442000  1
  H  H5  1  0.12660000  0.25245000  0.04021000  1
  H  H6  1  0.02180000  0.22901000  0.82548000  1
  H  H7  1  0.69173000  0.23131000  0.86386000  1
  H  H8  1  0.71204000  0.14752000  0.94377000  1
  H  H9  1  0.88232000  0.36175000  0.09950000  1
  H  H10  1  0.87000000  0.45179000  0.02469000  1
  H  H11  1  0.50174000  0.35494000  0.98865000  1
  H  H12  1  0.52110000  0.27534000  0.07185000  1
  H  H13  1  0.69712000  0.49928000  0.22210000  1
  H  H14  1  0.67624000  0.57682000  0.13904000  1
  H  H15  1  0.31072000  0.48627000  0.11260000  1
  H  H16  1  0.33395000  0.41209000  0.19854000  1
  H  H17  1  0.49957000  0.64028000  0.34741000  1
  H  H18  1  0.48863000  0.71384000  0.26031000  1
  H  H19  1  0.12041000  0.61553000  0.22220000  1
  H  H20  1  0.13599000  0.55470000  0.31822000  1
  H  H21  1  0.29879000  0.85146000  0.36201000  1
  H  H22  1  0.29377000  0.78992000  0.45852000  1
  H  H23  1  0.94662000  0.72280000  0.42720000  1
  H  H24  1  0.93849000  0.75984000  0.32480000  1
  H  H25  1  0.77558000  0.81342000  0.06460000  1
  H  H26  1  0.86606000  0.74102000  0.95671000  1
  H  H27  1  0.97893000  0.77648000  0.17358000  1
  H  H28  1  0.30761000  0.77088000  0.13683000  1
  H  H29  1  0.29327000  0.85412000  0.05572000  1
  H  H30  1  0.11993000  0.63957000  0.90062000  1
  H  H31  1  0.13169000  0.55050000  0.97642000  1
  H  H32  1  0.50004000  0.64587000  0.01155000  1
  H  H33  1  0.48090000  0.72539000  0.92831000  1
  H  H34  1  0.30289000  0.50153000  0.77834000  1
  H  H35  1  0.32405000  0.42419000  0.86153000  1
  H  H36  1  0.68924000  0.51379000  0.88713000  1
  H  H37  1  0.66590000  0.58774000  0.80095000  1
  H  H38  1  0.49987000  0.35952000  0.65242000  1
  H  H39  1  0.51116000  0.28610000  0.73975000  1
  H  H40  1  0.87932000  0.38570000  0.77813000  1
  H  H41  1  0.86350000  0.44481000  0.68104000  1
  H  H42  1  0.69707000  0.14942000  0.63955000  1
  H  H43  1  0.70946000  0.20876000  0.54167000  1
  H  H44  1  0.05144000  0.26860000  0.57104000  1
  H  H45  1  0.06206000  0.24354000  0.67910000  1
  C  C46  1  0.65012000  0.97991000  0.30697000  1
  C  C47  1  0.69008000  0.09949000  0.17397000  1
  C  C48  1  0.39387000  0.12560000  0.38823000  1
  C  C49  1  0.31794000  0.09881000  0.18633000  1
  C  C50  1  0.97475000  0.22484000  0.89889000  1
  C  C51  1  0.78532000  0.23558000  0.92994000  1
  C  C52  1  0.79514000  0.35948000  0.03201000  1
  C  C53  1  0.59453000  0.36217000  0.05691000  1
  C  C54  1  0.60293000  0.49014000  0.15407000  1
  C  C55  1  0.40472000  0.49799000  0.18191000  1
  C  C56  1  0.41100000  0.62872000  0.27624000  1
  C  C57  1  0.20851000  0.63566000  0.29649000  1
  C  C58  1  0.21451000  0.77194000  0.38240000  1
  C  C59  1  0.31988000  0.98154000  0.67878000  1
  C  C60  1  0.33273000  0.92810000  0.83952000  1
  C  C61  1  0.63922000  0.91112000  0.63512000  1
  C  C62  1  0.65923000  0.87458000  0.80278000  1
  C  C63  1  0.02668000  0.77927000  0.09974000  1
  C  C64  1  0.21639000  0.76680000  0.06985000  1
  C  C65  1  0.20680000  0.64221000  0.96836000  1
  C  C66  1  0.40721000  0.63877000  0.94341000  1
  C  C67  1  0.39750000  0.51053000  0.84615000  1
  C  C68  1  0.59511000  0.50209000  0.81787000  1
  C  C69  1  0.58854000  0.37124000  0.72361000  1
  C  C70  1  0.79126000  0.36455000  0.70351000  1
  C  C71  1  0.78502000  0.22750000  0.61886000  1
  N  N72  1  0.76774000  0.96143000  0.35454000  1
  N  N73  1  0.76859000  0.07433000  0.10001000  1
  N  N74  1  0.28106000  0.11094000  0.44400000  1
  N  N75  1  0.22289000  0.13667000  0.14281000  1
  N  N76  1  0.09914000  0.19377000  0.95976000  1
  N  N77  1  0.01926000  0.78678000  0.39687000  1
  N  N78  1  0.21337000  0.02139000  0.64403000  1
  N  N79  1  0.23222000  0.93022000  0.90333000  1
  N  N80  1  0.73920000  0.90124000  0.57076000  1
  N  N81  1  0.77307000  0.84942000  0.84700000  1
  N  N82  1  0.90034000  0.80565000  0.03615000  1
  N  N83  1  0.97982000  0.21051000  0.60606000  1
