# generated using pymatgen
data_Gd2Ni3H24(C4O5)6
_symmetry_space_group_name_H-M   'P 1'
_cell_length_a   13.88927230
_cell_length_b   13.89157000
_cell_length_c   15.74574000
_cell_angle_alpha   90.00756000
_cell_angle_beta   90.05134382
_cell_angle_gamma   119.94355710
_symmetry_Int_Tables_number   1
_chemical_formula_structural   Gd2Ni3H24(C4O5)6
_chemical_formula_sum   'Gd4 Ni6 H48 C48 O60'
_cell_volume   2632.51580376
_cell_formula_units_Z   2
loop_
 _symmetry_equiv_pos_site_id
 _symmetry_equiv_pos_as_xyz
  1  'x, y, z'
loop_
 _atom_site_type_symbol
 _atom_site_label
 _atom_site_symmetry_multiplicity
 _atom_site_fract_x
 _atom_site_fract_y
 _atom_site_fract_z
 _atom_site_occupancy
  Gd  Gd0  1  0.66879000  0.33497000  0.74832000  1
  Gd  Gd1  1  0.33301000  0.66612000  0.74952000  1
  Gd  Gd2  1  0.33329000  0.66603000  0.25059000  1
  Gd  Gd3  1  0.66595000  0.33155000  0.25175000  1
  Ni  Ni4  1  0.50122000  0.49985000  0.00019000  1
  Ni  Ni5  1  0.99778000  0.49839000  0.99996000  1
  Ni  Ni6  1  0.50356000  0.00207000  0.99970000  1
  Ni  Ni7  1  0.49901000  0.99858000  0.50015000  1
  Ni  Ni8  1  0.00244000  0.50176000  0.49883000  1
  Ni  Ni9  1  0.49883000  0.50082000  0.50118000  1
  H  H10  1  0.36068000  0.17616000  0.85628000  1
  H  H11  1  0.33154000  0.25836000  0.78412000  1
  H  H12  1  0.81679000  0.64281000  0.85614000  1
  H  H13  1  0.92846000  0.67155000  0.78431000  1
  H  H14  1  0.82757000  0.18178000  0.85437000  1
  H  H15  1  0.74289000  0.07371000  0.78057000  1
  H  H16  1  0.63982000  0.82565000  0.85681000  1
  H  H17  1  0.67075000  0.74428000  0.78524000  1
  H  H18  1  0.18482000  0.35921000  0.85661000  1
  H  H19  1  0.07321000  0.32888000  0.78426000  1
  H  H20  1  0.17713000  0.81692000  0.85663000  1
  H  H21  1  0.26034000  0.92799000  0.78443000  1
  H  H22  1  0.64681000  0.82223000  0.64493000  1
  H  H23  1  0.66678000  0.92810000  0.72001000  1
  H  H24  1  0.17989000  0.82608000  0.64519000  1
  H  H25  1  0.07347000  0.74030000  0.71977000  1
  H  H26  1  0.17345000  0.35363000  0.64501000  1
  H  H27  1  0.26034000  0.33301000  0.71876000  1
  H  H28  1  0.35456000  0.17937000  0.64481000  1
  H  H29  1  0.33373000  0.07333000  0.71956000  1
  H  H30  1  0.81936000  0.17512000  0.64286000  1
  H  H31  1  0.92968000  0.25933000  0.71517000  1
  H  H32  1  0.82447000  0.64794000  0.64390000  1
  H  H33  1  0.74003000  0.66923000  0.71933000  1
  H  H34  1  0.63932000  0.82498000  0.14310000  1
  H  H35  1  0.67099000  0.74389000  0.21449000  1
  H  H36  1  0.18530000  0.35953000  0.14324000  1
  H  H37  1  0.07264000  0.32898000  0.21437000  1
  H  H38  1  0.17764000  0.81790000  0.14264000  1
  H  H39  1  0.26135000  0.92854000  0.21483000  1
  H  H40  1  0.35658000  0.17309000  0.14432000  1
  H  H41  1  0.32956000  0.25719000  0.21626000  1
  H  H42  1  0.81534000  0.63974000  0.14449000  1
  H  H43  1  0.92533000  0.66558000  0.21763000  1
  H  H44  1  0.82658000  0.18256000  0.14412000  1
  H  H45  1  0.74379000  0.07111000  0.21591000  1
  H  H46  1  0.35326000  0.17910000  0.35595000  1
  H  H47  1  0.33127000  0.07102000  0.28244000  1
  H  H48  1  0.82457000  0.17628000  0.35688000  1
  H  H49  1  0.92987000  0.25987000  0.28102000  1
  H  H50  1  0.82320000  0.64249000  0.35652000  1
  H  H51  1  0.73821000  0.66610000  0.28292000  1
  H  H52  1  0.64862000  0.82375000  0.35490000  1
  H  H53  1  0.66618000  0.92874000  0.28016000  1
  H  H54  1  0.18054000  0.82712000  0.35389000  1
  H  H55  1  0.07352000  0.74078000  0.27972000  1
  H  H56  1  0.17387000  0.35354000  0.35593000  1
  H  H57  1  0.25954000  0.33230000  0.28169000  1
  C  C58  1  0.47579000  0.35125000  0.86326000  1
  C  C59  1  0.39808000  0.24802000  0.81279000  1
  C  C60  1  0.87636000  0.52731000  0.86341000  1
  C  C61  1  0.85137000  0.60538000  0.81274000  1
  C  C62  1  0.65309000  0.12592000  0.86281000  1
  C  C63  1  0.75540000  0.15028000  0.81128000  1
  C  C64  1  0.52650000  0.64990000  0.86371000  1
  C  C65  1  0.60348000  0.75364000  0.81343000  1
  C  C66  1  0.12257000  0.47315000  0.86349000  1
  C  C67  1  0.14937000  0.39592000  0.81328000  1
  C  C68  1  0.35250000  0.87594000  0.86369000  1
  C  C69  1  0.24906000  0.85090000  0.81325000  1
  C  C70  1  0.52690000  0.87620000  0.63589000  1
  C  C71  1  0.60444000  0.85178000  0.68799000  1
  C  C72  1  0.12481000  0.65179000  0.63560000  1
  C  C73  1  0.14961000  0.75378000  0.68785000  1
  C  C74  1  0.34744000  0.47313000  0.63544000  1
  C  C75  1  0.24596000  0.39558000  0.68757000  1
  C  C76  1  0.47378000  0.12454000  0.63568000  1
  C  C77  1  0.39663000  0.14938000  0.68776000  1
  C  C78  1  0.87806000  0.35066000  0.63462000  1
  C  C79  1  0.85272000  0.24765000  0.68566000  1
  C  C80  1  0.65035000  0.52810000  0.63664000  1
  C  C81  1  0.75320000  0.60625000  0.68756000  1
  C  C82  1  0.52606000  0.64947000  0.13662000  1
  C  C83  1  0.60345000  0.75332000  0.18676000  1
  C  C84  1  0.12343000  0.47364000  0.13635000  1
  C  C85  1  0.14969000  0.39605000  0.18657000  1
  C  C86  1  0.35273000  0.87566000  0.13594000  1
  C  C87  1  0.24951000  0.85118000  0.18614000  1
  C  C88  1  0.47324000  0.34828000  0.13641000  1
  C  C89  1  0.39507000  0.24550000  0.18729000  1
  C  C90  1  0.87363000  0.52314000  0.13686000  1
  C  C91  1  0.84835000  0.60082000  0.18792000  1
  C  C92  1  0.65168000  0.12364000  0.13683000  1
  C  C93  1  0.75465000  0.14833000  0.18755000  1
  C  C94  1  0.47240000  0.12379000  0.36493000  1
  C  C95  1  0.39446000  0.14796000  0.31316000  1
  C  C96  1  0.87822000  0.35000000  0.36344000  1
  C  C97  1  0.85379000  0.24705000  0.31270000  1
  C  C98  1  0.64882000  0.52516000  0.36514000  1
  C  C99  1  0.75107000  0.60219000  0.31345000  1
  C  C100  1  0.52700000  0.87548000  0.36456000  1
  C  C101  1  0.60484000  0.85205000  0.31218000  1
  C  C102  1  0.12514000  0.65271000  0.36397000  1
  C  C103  1  0.14994000  0.75448000  0.31146000  1
  C  C104  1  0.34810000  0.47308000  0.36471000  1
  C  C105  1  0.24590000  0.39525000  0.31302000  1
  O  O106  1  0.42525000  0.38213000  0.91418000  1
  O  O107  1  0.57943000  0.39515000  0.85282000  1
  O  O108  1  0.95794000  0.57689000  0.91426000  1
  O  O109  1  0.81597000  0.42371000  0.85317000  1
  O  O110  1  0.62205000  0.04473000  0.91392000  1
  O  O111  1  0.60951000  0.18607000  0.85284000  1
  O  O112  1  0.57713000  0.61876000  0.91433000  1
  O  O113  1  0.42276000  0.60540000  0.85314000  1
  O  O114  1  0.04111000  0.42282000  0.91423000  1
  O  O115  1  0.18164000  0.57679000  0.85274000  1
  O  O116  1  0.38502000  0.95820000  0.91390000  1
  O  O117  1  0.39552000  0.81526000  0.85334000  1
  O  O118  1  0.57691000  0.95782000  0.58512000  1
  O  O119  1  0.42326000  0.81533000  0.64503000  1
  O  O120  1  0.04342000  0.62036000  0.58461000  1
  O  O121  1  0.18535000  0.60855000  0.64516000  1
  O  O122  1  0.37873000  0.42300000  0.58458000  1
  O  O123  1  0.39070000  0.57683000  0.64494000  1
  O  O124  1  0.42342000  0.04276000  0.58506000  1
  O  O125  1  0.57751000  0.18545000  0.64496000  1
  O  O126  1  0.95918000  0.38159000  0.58353000  1
  O  O127  1  0.81883000  0.39515000  0.64520000  1
  O  O128  1  0.61577000  0.57771000  0.58813000  1
  O  O129  1  0.60962000  0.42445000  0.64471000  1
  O  O130  1  0.57662000  0.61837000  0.08597000  1
  O  O131  1  0.42234000  0.60491000  0.14700000  1
  O  O132  1  0.04161000  0.42316000  0.08580000  1
  O  O133  1  0.18260000  0.57732000  0.14700000  1
  O  O134  1  0.38515000  0.95769000  0.08560000  1
  O  O135  1  0.39561000  0.81493000  0.14669000  1
  O  O136  1  0.42366000  0.38057000  0.08569000  1
  O  O137  1  0.57677000  0.39097000  0.14685000  1
  O  O138  1  0.95461000  0.57375000  0.08569000  1
  O  O139  1  0.81464000  0.41947000  0.14720000  1
  O  O140  1  0.62027000  0.04234000  0.08576000  1
  O  O141  1  0.60800000  0.18366000  0.14709000  1
  O  O142  1  0.42278000  0.04155000  0.41506000  1
  O  O143  1  0.57604000  0.18518000  0.35561000  1
  O  O144  1  0.96196000  0.38419000  0.41235000  1
  O  O145  1  0.81531000  0.39085000  0.35512000  1
  O  O146  1  0.61841000  0.57626000  0.41599000  1
  O  O147  1  0.60509000  0.42150000  0.35530000  1
  O  O148  1  0.57679000  0.95719000  0.41531000  1
  O  O149  1  0.42341000  0.81429000  0.35506000  1
  O  O150  1  0.04359000  0.62159000  0.41469000  1
  O  O151  1  0.18561000  0.60930000  0.35500000  1
  O  O152  1  0.37991000  0.42332000  0.41553000  1
  O  O153  1  0.39129000  0.57673000  0.35478000  1
  O  O154  1  0.46166000  0.23270000  0.74877000  1
  O  O155  1  0.77254000  0.54195000  0.74857000  1
  O  O156  1  0.77260000  0.23174000  0.74890000  1
  O  O157  1  0.53973000  0.76809000  0.74884000  1
  O  O158  1  0.22804000  0.46007000  0.74925000  1
  O  O159  1  0.23284000  0.77168000  0.74904000  1
  O  O160  1  0.54020000  0.76797000  0.25149000  1
  O  O161  1  0.22758000  0.45960000  0.25132000  1
  O  O162  1  0.23282000  0.77181000  0.25033000  1
  O  O163  1  0.45874000  0.22967000  0.25111000  1
  O  O164  1  0.76804000  0.53744000  0.25120000  1
  O  O165  1  0.76996000  0.22723000  0.25164000  1
