# generated using pymatgen
data_H14C15(N2O)2
_symmetry_space_group_name_H-M   'P 1'
_cell_length_a   11.63260000
_cell_length_b   31.22630000
_cell_length_c   31.22630000
_cell_angle_alpha   90.00000000
_cell_angle_beta   90.00000000
_cell_angle_gamma   90.00000000
_symmetry_Int_Tables_number   1
_chemical_formula_structural   H14C15(N2O)2
_chemical_formula_sum   'H224 C240 N64 O32'
_cell_volume   11342.73668267
_cell_formula_units_Z   16
loop_
 _symmetry_equiv_pos_site_id
 _symmetry_equiv_pos_as_xyz
  1  'x, y, z'
loop_
 _atom_site_type_symbol
 _atom_site_label
 _atom_site_symmetry_multiplicity
 _atom_site_fract_x
 _atom_site_fract_y
 _atom_site_fract_z
 _atom_site_occupancy
  C  1  1  0.31251700  0.24097700  0.57912700  1
  C  2  1  0.31902500  0.28032200  0.54783900  1
  C  3  1  0.43788900  0.22635000  0.59046400  1
  C  4  1  0.50665200  0.21366800  0.54907200  1
  C  7  1  0.50968700  0.25351000  0.51864300  1
  C  8  1  0.38589800  0.26894000  0.50577500  1
  C  13  1  0.32248900  0.23103200  0.48292900  1
  C  14  1  0.31575000  0.19049200  0.51267700  1
  C  17  1  0.44107200  0.17668000  0.52532600  1
  C  20  1  0.25104500  0.20323900  0.55496800  1
  C  23  1  0.24280900  0.25246300  0.62051800  1
  C  26  1  0.24887000  0.15303300  0.49018000  1
  C  29  1  0.63349500  0.20079200  0.56007300  1
  C  32  1  0.39952400  0.30881200  0.47573700  1
  C  35  1  0.81245800  0.24704300  0.90883600  1
  C  36  1  0.81894700  0.20765500  0.94006600  1
  C  37  1  0.93783800  0.26167500  0.89751900  1
  C  38  1  0.00660900  0.27429500  0.93892600  1
  C  41  1  0.00962700  0.23441000  0.96929800  1
  C  42  1  0.88582900  0.21897200  0.98214600  1
  C  47  1  0.82243900  0.25685300  0.00504700  1
  C  48  1  0.81572400  0.29743500  0.97535700  1
  C  51  1  0.94105300  0.31125400  0.96272300  1
  C  54  1  0.75101000  0.28475200  0.93305000  1
  C  57  1  0.74276400  0.23562600  0.86741900  1
  C  60  1  0.74888500  0.33487100  0.99790500  1
  C  63  1  0.13345200  0.28718300  0.92794500  1
  C  66  1  0.89944900  0.17905800  0.01213100  1
  C  69  1  0.56228900  0.40854300  0.74097800  1
  C  70  1  0.56866500  0.43987300  0.78029100  1
  C  71  1  0.68772100  0.39714300  0.72646100  1
  C  72  1  0.75666700  0.43849600  0.71379200  1
  C  75  1  0.75955300  0.46896300  0.75360200  1
  C  76  1  0.63571400  0.48189500  0.76891900  1
  C  81  1  0.57258000  0.50472800  0.73093800  1
  C  82  1  0.56600200  0.47493900  0.69042100  1
  C  85  1  0.69136800  0.46222900  0.67672700  1
  C  88  1  0.50111000  0.43268600  0.70316000  1
  C  91  1  0.49241600  0.36718400  0.75246200  1
  C  94  1  0.49943100  0.49743000  0.65288500  1
  C  97  1  0.88356800  0.42744400  0.70103400  1
  C  100  1  0.64921700  0.51197200  0.80876700  1
  C  103  1  0.06258100  0.07947100  0.74695300  1
  C  104  1  0.06871100  0.04817200  0.70760800  1
  C  105  1  0.18810800  0.09081000  0.76140300  1
  C  106  1  0.25700600  0.04942000  0.77399100  1
  C  109  1  0.25963900  0.01898800  0.73414700  1
  C  110  1  0.13569500  0.00611400  0.71890000  1
  C  115  1  0.07267300  0.98327300  0.75690000  1
  C  116  1  0.06633800  0.01302700  0.79744600  1
  C  119  1  0.19179800  0.02567800  0.81107200  1
  C  122  1  0.00149500  0.05531600  0.78478400  1
  C  125  1  0.99278700  0.12086600  0.73553000  1
  C  128  1  0.99993067  0.99051700  0.83500400  1
  C  131  1  0.38398000  0.06042000  0.78669500  1
  C  134  1  0.14884900  0.97606100  0.67901700  1
  C  137  1  0.79891800  0.74214000  0.07402200  1
  C  138  1  0.82037600  0.78117100  0.04326600  1
  C  139  1  0.91837500  0.72260500  0.08690400  1
  C  140  1  0.98702700  0.70700300  0.04639500  1
  C  143  1  0.00424700  0.74639300  0.01596400  1
  C  144  1  0.88730800  0.76716700  0.00201600  1
  C  149  1  0.81534500  0.73204600  0.97821700  1
  C  150  1  0.79427600  0.69172100  0.00739700  1
  C  153  1  0.91323500  0.67270800  0.02184500  1
  C  156  1  0.72963800  0.70711200  0.04868600  1
  C  159  1  0.72679200  0.75557700  0.11431200  1
  C  162  1  0.71696800  0.65790000  0.98361000  1
  C  165  1  0.10915000  0.68956900  0.05874300  1
  C  168  1  0.91533200  0.80613400  0.97206800  1
  C  171  1  0.29909900  0.74600500  0.41399400  1
  C  172  1  0.32035700  0.70695800  0.44474300  1
  C  173  1  0.41866000  0.76551800  0.40120600  1
  C  174  1  0.48715700  0.78108500  0.44176800  1
  C  177  1  0.50417900  0.74166900  0.47218200  1
  C  178  1  0.38713700  0.72091400  0.48604500  1
  C  183  1  0.31513000  0.75603900  0.50982300  1
  C  184  1  0.29426400  0.79638600  0.48065600  1
  C  187  1  0.41331200  0.81538000  0.46629900  1
  C  190  1  0.22979300  0.78103700  0.43931200  1
  C  193  1  0.22713600  0.73263200  0.37363400  1
  C  196  1  0.21687400  0.83020700  0.50439800  1
  C  199  1  0.60934700  0.79850000  0.42949700  1
  C  202  1  0.41495700  0.68191800  0.51598500  1
  C  205  1  0.04878400  0.91368500  0.24222900  1
  C  206  1  0.06980400  0.94461700  0.28115000  1
  C  207  1  0.16847300  0.90076300  0.22291300  1
  C  208  1  0.23718800  0.94122500  0.20723000  1
  C  211  1  0.25395600  0.97183100  0.24651000  1
  C  212  1  0.13678000  0.98582900  0.26706800  1
  C  217  1  0.06509400  0.00945700  0.23175500  1
  C  218  1  0.04449400  0.98010000  0.19152300  1
  C  221  1  0.16366100  0.96560900  0.17273400  1
  C  224  1  0.97979800  0.93885200  0.20700000  1
  C  227  1  0.97664300  0.87341400  0.25573300  1
  C  230  1  0.96743600  0.00372700  0.15751300  1
  C  233  1  0.35950700  0.92884200  0.19001200  1
  C  236  1  0.16433100  0.01594800  0.30595200  1
  C  239  1  0.54883700  0.57434300  0.24587300  1
  C  240  1  0.56996600  0.54346800  0.20691200  1
  C  241  1  0.66847800  0.58726800  0.26523200  1
  C  242  1  0.73724600  0.54679800  0.28087100  1
  C  245  1  0.75412800  0.51625700  0.24154700  1
  C  246  1  0.63700300  0.50225600  0.22095000  1
  C  251  1  0.56532300  0.47855800  0.25621800  1
  C  252  1  0.54460200  0.50785400  0.29648500  1
  C  255  1  0.66372000  0.52234500  0.31531700  1
  C  258  1  0.47985800  0.54910700  0.28105300  1
  C  261  1  0.47663400  0.61461300  0.23240900  1
  C  264  1  0.46753100  0.48416500  0.33044600  1
  C  267  1  0.85951500  0.55919200  0.29813000  1
  C  270  1  0.66466500  0.47220100  0.18203000  1
  C  273  1  0.74636700  0.16241900  0.61340900  1
  C  274  1  0.83437100  0.13305100  0.60279300  1
  C  275  1  0.93150800  0.12869600  0.62869700  1
  C  276  1  0.94686500  0.15314800  0.66626200  1
  C  277  1  0.86200800  0.18419300  0.67547200  1
  C  278  1  0.76475700  0.18836100  0.64972400  1
  C  281  1  0.93807800  0.08465600  0.57678300  1
  C  284  1  0.75908100  0.23312500  0.70083200  1
  C  291  1  0.24621900  0.32565500  0.87464100  1
  C  292  1  0.33417600  0.35506600  0.88519300  1
  C  293  1  0.43129500  0.35940500  0.85927500  1
  C  294  1  0.44664100  0.33491300  0.82174000  1
  C  295  1  0.36174100  0.30387700  0.81255200  1
  C  296  1  0.26464500  0.29965700  0.83836700  1
  C  299  1  0.43783400  0.40352200  0.91112600  1
  C  302  1  0.25928800  0.25468200  0.78743200  1
  C  309  1  0.99692200  0.37424800  0.66270400  1
  C  310  1  0.08478800  0.38501800  0.63333100  1
  C  311  1  0.18210000  0.35922300  0.62888900  1
  C  312  1  0.19764200  0.32158100  0.65320900  1
  C  313  1  0.11305200  0.31226000  0.68431700  1
  C  314  1  0.01566300  0.33791400  0.68858600  1
  C  317  1  0.18787600  0.41109600  0.58478600  1
  C  320  1  0.01047800  0.28671800  0.73325700  1
  C  327  1  0.49730800  0.11353700  0.82520500  1
  C  328  1  0.58521700  0.10287000  0.85459700  1
  C  329  1  0.68228000  0.12878500  0.85908300  1
  C  330  1  0.69746300  0.16647700  0.83482200  1
  C  331  1  0.61276000  0.17576300  0.80374500  1
  C  332  1  0.51562100  0.14998100  0.79943200  1
  C  335  1  0.68896700  0.07667800  0.90288600  1
  C  338  1  0.50973000  0.20133600  0.75495900  1
  C  345  1  0.21395800  0.65242100  0.11477700  1
  C  346  1  0.30098200  0.62308300  0.10290400  1
  C  347  1  0.40169900  0.61941000  0.12700700  1
  C  348  1  0.42291500  0.64503300  0.16337300  1
  C  349  1  0.33859900  0.67592400  0.17380200  1
  C  350  1  0.23713400  0.67905900  0.15022500  1
  C  353  1  0.40089900  0.57360000  0.07661500  1
  C  356  1  0.23732300  0.72443700  0.20089700  1
  C  363  1  0.71423400  0.83569600  0.37349900  1
  C  364  1  0.80126400  0.86506500  0.38529400  1
  C  365  1  0.90193100  0.86871600  0.36115700  1
  C  366  1  0.92305700  0.84305500  0.32480900  1
  C  367  1  0.83865100  0.81218700  0.31441200  1
  C  368  1  0.73734000  0.80901600  0.33807400  1
  C  371  1  0.90122600  0.91458100  0.41149600  1
  C  374  1  0.73759000  0.76350000  0.28752100  1
  C  381  1  0.46504600  0.87285000  0.15309500  1
  C  382  1  0.55202500  0.88494300  0.12382700  1
  C  383  1  0.65285500  0.86092800  0.12002700  1
  C  384  1  0.67409600  0.82439400  0.14540800  1
  C  385  1  0.58997000  0.81379800  0.17631000  1
  C  386  1  0.48841200  0.83730700  0.17957800  1
  C  389  1  0.65151300  0.91142400  0.07432300  1
  C  392  1  0.48882400  0.78639400  0.22468800  1
  C  399  1  0.96475400  0.61514100  0.33524600  1
  C  400  1  0.05168100  0.60316100  0.36458400  1
  C  401  1  0.15245900  0.62720500  0.36835900  1
  C  402  1  0.17359900  0.66371600  0.34293800  1
  C  403  1  0.08945600  0.67426100  0.31202200  1
  C  404  1  0.98799000  0.65070100  0.30876600  1
  C  407  1  0.15167700  0.57654300  0.41386600  1
  C  410  1  0.98820500  0.70160100  0.26363800  1
  C  417  1  0.10320900  0.05432800  0.36854500  1
  C  418  1  0.09344300  0.09915400  0.36277700  1
  C  419  1  0.15252000  0.12765200  0.38925200  1
  C  420  1  0.22216000  0.11363400  0.42341200  1
  C  421  1  0.22916500  0.06895500  0.43022700  1
  C  422  1  0.17231000  0.04041300  0.40309300  1
  C  425  1  0.06604700  0.16158000  0.33980300  1
  C  428  1  0.28214500  0.00665100  0.44588400  1
  C  435  1  0.60365600  0.43375000  0.11947600  1
  C  436  1  0.59379600  0.38892500  0.12530300  1
  C  437  1  0.65270800  0.36035300  0.09885200  1
  C  438  1  0.72240800  0.37428700  0.06467700  1
  C  439  1  0.72988700  0.41896100  0.05791600  1
  C  440  1  0.67285900  0.44756800  0.08492000  1
  C  443  1  0.56608000  0.32653900  0.14833600  1
  C  446  1  0.78241400  0.48121900  0.04193400  1
  C  453  1  0.35419300  0.61915400  0.55417000  1
  C  454  1  0.34407500  0.62479000  0.59901100  1
  C  455  1  0.40291000  0.59824900  0.62752200  1
  C  456  1  0.47298800  0.56421600  0.61349200  1
  C  457  1  0.48040800  0.55753300  0.56880900  1
  C  458  1  0.42387800  0.58476300  0.54027800  1
  C  461  1  0.31599100  0.64758500  0.66147400  1
  C  464  1  0.53348200  0.54191500  0.50649900  1
  C  471  1  0.85484700  0.86881500  0.93369300  1
  C  472  1  0.84494400  0.86308600  0.88886900  1
  C  473  1  0.90372700  0.88961200  0.86033800  1
  C  474  1  0.97376300  0.92366000  0.87435200  1
  C  475  1  0.98118500  0.93039200  0.91903300  1
  C  476  1  0.92459900  0.90319700  0.94758500  1
  C  479  1  0.81592900  0.84048000  0.82641200  1
  C  482  1  0.03417200  0.94607400  0.98132900  1
  C  489  1  0.44594500  0.42035100  0.37503300  1
  C  490  1  0.41978400  0.37919600  0.35866200  1
  C  491  1  0.36064900  0.34920900  0.38344900  1
  C  492  1  0.32100000  0.35840000  0.42516400  1
  C  493  1  0.34036300  0.40050500  0.44027000  1
  C  494  1  0.40205400  0.43021400  0.41600200  1
  C  497  1  0.41750700  0.32070100  0.32533500  1
  C  500  1  0.36075400  0.45611200  0.47708800  1
  C  507  1  0.94590200  0.06749800  0.11284300  1
  C  508  1  0.91982000  0.10867700  0.12918100  1
  C  509  1  0.86065000  0.13866000  0.10439800  1
  C  510  1  0.82095900  0.12944800  0.06269100  1
  C  511  1  0.84054000  0.08736000  0.04757800  1
  C  512  1  0.90191300  0.05761200  0.07189900  1
  C  515  1  0.91764500  0.16718400  0.16248200  1
  C  518  1  0.85985000  0.03159300  0.01092600  1
  C  525  1  0.19472900  0.87484900  0.56813300  1
  C  526  1  0.16843800  0.85870800  0.60937700  1
  C  527  1  0.10892500  0.88360400  0.63917900  1
  C  528  1  0.06966500  0.92531900  0.62973800  1
  C  529  1  0.08895600  0.94016900  0.58755600  1
  C  530  1  0.15086800  0.91576600  0.55803300  1
  C  533  1  0.16626400  0.82573000  0.66808700  1
  C  536  1  0.10890200  0.97659600  0.53167000  1
  C  543  1  0.69538000  0.61319400  0.91987200  1
  C  544  1  0.66941100  0.62932200  0.87859900  1
  C  545  1  0.61007900  0.60445500  0.84874300  1
  C  546  1  0.57081900  0.56274700  0.85813800  1
  C  547  1  0.59003200  0.54780700  0.90030800  1
  C  548  1  0.65175400  0.57221900  0.92988900  1
  C  551  1  0.66604200  0.66262400  0.82009700  1
  C  554  1  0.61007900  0.51132200  0.95613900  1
  H  5  1  0.43427000  0.19904600  0.61239700  1
  H  6  1  0.48284100  0.25214900  0.60727900  1
  H  9  1  0.55559700  0.27982900  0.53434100  1
  H  10  1  0.55867000  0.24536100  0.48979800  1
  H  11  1  0.36263700  0.30698500  0.56368200  1
  H  12  1  0.23202000  0.29110600  0.54005700  1
  H  15  1  0.36807700  0.22318900  0.45329700  1
  H  16  1  0.23554500  0.24091900  0.47388200  1
  H  18  1  0.48956200  0.16759800  0.49674800  1
  H  19  1  0.43668600  0.14835300  0.54585400  1
  H  21  1  0.16281000  0.21267600  0.54716000  1
  H  22  1  0.24501700  0.17536200  0.57615200  1
  H  24  1  0.24614400  0.22572300  0.64318800  1
  H  25  1  0.15232000  0.25584900  0.61123800  1
  H  27  1  0.15796000  0.16192800  0.48810800  1
  H  28  1  0.25417400  0.12409200  0.50988700  1
  H  30  1  0.67677700  0.22912200  0.57307400  1
  H  31  1  0.67962300  0.19171400  0.53086600  1
  H  33  1  0.43661600  0.33509600  0.49447100  1
  H  34  1  0.46270700  0.30043500  0.45107800  1
  H  39  1  0.93424400  0.28901100  0.87562400  1
  H  40  1  0.98277200  0.23589500  0.88066400  1
  H  43  1  0.05552500  0.20811100  0.95356100  1
  H  44  1  0.05861800  0.24251600  0.99815200  1
  H  45  1  0.86254700  0.18101100  0.92419200  1
  H  46  1  0.73193400  0.19686600  0.94783800  1
  H  49  1  0.86804300  0.26465200  0.03468900  1
  H  50  1  0.73550000  0.24696100  0.01408100  1
  H  52  1  0.98956100  0.32029400  0.99131100  1
  H  53  1  0.93666900  0.33961100  0.94223400  1
  H  55  1  0.66277400  0.27531100  0.94084400  1
  H  56  1  0.74499200  0.31265900  0.91190400  1
  H  58  1  0.74622200  0.26238700  0.84477800  1
  H  59  1  0.65224500  0.23227900  0.87667400  1
  H  61  1  0.65796800  0.32598800  0.99997400  1
  H  62  1  0.75420700  0.36383400  0.97822600  1
  H  64  1  0.17670200  0.25887700  0.91488200  1
  H  65  1  0.17960600  0.29619000  0.95716700  1
  H  67  1  0.93651400  0.15279700  0.99336100  1
  H  68  1  0.96264800  0.18740100  0.03679400  1
  H  73  1  0.68420700  0.37518700  0.69917600  1
  H  74  1  0.73247600  0.38033300  0.75231400  1
  H  77  1  0.80527100  0.45327800  0.77997400  1
  H  78  1  0.80866600  0.49778200  0.74546100  1
  H  79  1  0.61210800  0.42404900  0.80699900  1
  H  80  1  0.48162400  0.44770300  0.79100300  1
  H  83  1  0.61829600  0.53433500  0.72310500  1
  H  84  1  0.48560800  0.51381300  0.74074700  1
  H  86  1  0.73998800  0.49078200  0.66765200  1
  H  87  1  0.68707700  0.44167200  0.64841800  1
  H  89  1  0.41284000  0.44053600  0.71251800  1
  H  90  1  0.49518500  0.41147300  0.67530200  1
  H  92  1  0.49603500  0.34445300  0.72577900  1
  H  93  1  0.40189500  0.37647100  0.75568600  1
  H  95  1  0.40844700  0.49950800  0.66168200  1
  H  96  1  0.50495100  0.47772200  0.62395100  1
  H  98  1  0.92664500  0.41445500  0.72941000  1
  H  99  1  0.92980000  0.45663100  0.69196800  1
  H  101  1  0.68608900  0.49325400  0.83510000  1
  H  102  1  0.71254000  0.53658600  0.80040200  1
  H  107  1  0.18478100  0.11274200  0.78871300  1
  H  108  1  0.23279200  0.10762800  0.73554000  1
  H  111  1  0.30527900  0.03468300  0.70776200  1
  H  112  1  0.30871000  0.99014600  0.74223000  1
  H  113  1  0.11209000  0.06400200  0.68089000  1
  H  114  1  0.98160300  0.04038900  0.69693800  1
  H  117  1  0.11834800  0.95364400  0.76467900  1
  H  118  1  0.98562600  0.97422600  0.74714200  1
  H  120  1  0.24039400  0.99710500  0.82009000  1
  H  121  1  0.18766100  0.04620800  0.83940100  1
  H  123  1  0.91316600  0.04750600  0.77547100  1
  H  124  1  0.99574400  0.07650400  0.81266400  1
  H  126  1  0.99658700  0.14357900  0.76222600  1
  H  127  1  0.90221900  0.11162200  0.73235300  1
  H  129  1  0.90888500  0.98843600  0.82625200  1
  H  130  1  0.00552300  0.01020500  0.86394800  1
  H  132  1  0.42688600  0.07355400  0.75835100  1
  H  133  1  0.43028900  0.03119400  0.79558200  1
  H  135  1  0.18549400  0.99478900  0.65264200  1
  H  136  1  0.21222100  0.95143500  0.68728300  1
  H  141  1  0.90491300  0.69563800  0.10871000  1
  H  142  1  0.96870800  0.74652400  0.10437800  1
  H  145  1  0.05670100  0.77051400  0.03232900  1
  H  146  1  0.05243100  0.73643300  0.98749700  1
  H  147  1  0.86988200  0.80594800  0.05981600  1
  H  148  1  0.73781300  0.79541600  0.03436700  1
  H  151  1  0.86074400  0.72271100  0.94904900  1
  H  152  1  0.73275800  0.74549000  0.96822200  1
  H  154  1  0.96100300  0.66149700  0.99384100  1
  H  155  1  0.89873300  0.64483100  0.04236200  1
  H  157  1  0.64550500  0.71989900  0.03944300  1
  H  158  1  0.71332600  0.67972200  0.06976300  1
  H  160  1  0.72841800  0.72989100  0.13819000  1
  H  161  1  0.63685600  0.75839900  0.10410900  1
  H  163  1  0.63988300  0.67426500  0.97177300  1
  H  164  1  0.68816800  0.63385600  0.00672000  1
  H  166  1  0.16098700  0.71686700  0.06945500  1
  H  167  1  0.15184800  0.67634900  0.03041100  1
  H  169  1  0.98438800  0.82461500  0.98708100  1
  H  170  1  0.94965800  0.79368600  0.94182100  1
  H  175  1  0.40536000  0.79250500  0.37940800  1
  H  176  1  0.46902500  0.74159900  0.38375000  1
  H  179  1  0.55666700  0.71754900  0.45583000  1
  H  180  1  0.55225700  0.75160000  0.50068700  1
  H  181  1  0.36989000  0.68217500  0.42821300  1
  H  182  1  0.23771900  0.69273000  0.45358200  1
  H  185  1  0.36041800  0.76534200  0.53902300  1
  H  186  1  0.23247400  0.74261100  0.51976000  1
  H  188  1  0.46096400  0.82656200  0.49434300  1
  H  189  1  0.39895600  0.84327600  0.44579100  1
  H  191  1  0.14559800  0.76826600  0.44849700  1
  H  192  1  0.21362300  0.80844600  0.41824300  1
  H  194  1  0.22943300  0.75825500  0.34969500  1
  H  195  1  0.13703700  0.73006400  0.38370200  1
  H  197  1  0.13966200  0.81385500  0.51613200  1
  H  198  1  0.18830600  0.85428300  0.48128000  1
  H  200  1  0.66115000  0.77120900  0.41875300  1
  H  201  1  0.65200800  0.81165200  0.45787000  1
  H  203  1  0.48405200  0.66343400  0.50099700  1
  H  204  1  0.44915900  0.69432800  0.54626700  1
  H  209  1  0.15532800  0.87883900  0.19601600  1
  H  210  1  0.21860900  0.88340600  0.24697100  1
  H  213  1  0.30621600  0.95558500  0.27077100  1
  H  214  1  0.30216700  0.00027400  0.23649500  1
  H  215  1  0.11912200  0.92819200  0.30606400  1
  H  216  1  0.98707900  0.95354500  0.29524600  1
  H  219  1  0.11050100  0.03860400  0.22235500  1
  H  220  1  0.98235900  0.01948000  0.24505000  1
  H  222  1  0.21148300  0.99357900  0.16146400  1
  H  223  1  0.14946800  0.94497200  0.14492300  1
  H  225  1  0.89552600  0.94812000  0.21963500  1
  H  226  1  0.96380600  0.91765900  0.17967500  1
  H  228  1  0.97889500  0.84937700  0.23020200  1
  H  229  1  0.88657700  0.88354000  0.25825200  1
  H  231  1  0.89013600  0.01555800  0.17373600  1
  H  232  1  0.93896400  0.98052200  0.13350500  1
  H  234  1  0.41114500  0.91827400  0.21741900  1
  H  235  1  0.40222700  0.95712200  0.17669600  1
  H  237  1  0.23336900  0.00106500  0.32455000  1
  H  238  1  0.19852700  0.04618800  0.29344000  1
  H  243  1  0.65526200  0.60914700  0.29215800  1
  H  244  1  0.71861700  0.60467300  0.24120800  1
  H  247  1  0.80638700  0.53255100  0.21732000  1
  H  248  1  0.80238200  0.48781300  0.25152900  1
  H  249  1  0.61927700  0.55994100  0.18202900  1
  H  250  1  0.48727600  0.53453600  0.19279000  1
  H  253  1  0.61077500  0.44941300  0.26558400  1
  H  254  1  0.48261700  0.46853100  0.24289800  1
  H  256  1  0.71157600  0.49436800  0.32655500  1
  H  257  1  0.64944600  0.54293600  0.34315600  1
  H  259  1  0.39561600  0.53983600  0.26839000  1
  H  260  1  0.46379000  0.57026300  0.30840400  1
  H  262  1  0.47889600  0.63863400  0.25795500  1
  H  263  1  0.38657800  0.60447700  0.22989700  1
  H  265  1  0.39026500  0.47234800  0.31419000  1
  H  266  1  0.43900700  0.50733200  0.35448300  1
  H  268  1  0.91108600  0.56989400  0.27076000  1
  H  269  1  0.90236900  0.53088200  0.31132900  1
  H  271  1  0.73356600  0.48716300  0.16342400  1
  H  272  1  0.69907800  0.44198300  0.19451100  1
  H  285  1  0.96775400  0.06083900  0.55735000  1
  H  286  1  0.72987200  0.25734200  0.71991500  1
  H  288  1  0.62158100  0.13658900  0.57678900  1
  H  290  1  0.08386800  0.16858200  0.70240100  1
  H  303  1  0.46759900  0.42731300  0.93056800  1
  H  304  1  0.22951000  0.23072900  0.76814100  1
  H  306  1  0.12166600  0.35142800  0.91141400  1
  H  308  1  0.58357600  0.31947100  0.78556500  1
  H  321  1  0.21671800  0.43033600  0.56067100  1
  H  322  1  0.98065700  0.26722400  0.75703800  1
  H  324  1  0.87166200  0.41061500  0.63686000  1
  H  326  1  0.33473200  0.28530800  0.66819900  1
  H  339  1  0.71838500  0.05727600  0.92677300  1
  H  340  1  0.48042400  0.22054500  0.73085500  1
  H  342  1  0.37258200  0.07686700  0.85097100  1
  H  344  1  0.83437800  0.20278100  0.81964800  1
  H  357  1  0.42738400  0.54876200  0.05776400  1
  H  358  1  0.21020200  0.74881700  0.22019600  1
  H  360  1  0.08032700  0.62776900  0.08155000  1
  H  362  1  0.56497200  0.66098700  0.19660700  1
  H  375  1  0.92790600  0.93935500  0.43039300  1
  H  376  1  0.71016800  0.73924200  0.26812900  1
  H  378  1  0.58083200  0.86037100  0.40684000  1
  H  380  1  0.06502400  0.82706200  0.29154700  1
  H  393  1  0.67725200  0.93010300  0.04925000  1
  H  394  1  0.46133300  0.76673200  0.24871500  1
  H  396  1  0.33075900  0.90560800  0.12835400  1
  H  398  1  0.81608500  0.79086800  0.16081700  1
  H  411  1  0.17787800  0.55768700  0.43874200  1
  H  412  1  0.96106600  0.72103300  0.23937000  1
  H  414  1  0.83082000  0.58211200  0.35989800  1
  H  416  1  0.31574100  0.69700800  0.32719200  1
  H  429  1  0.04038600  0.18663000  0.32108800  1
  H  430  1  0.32424400  0.98160500  0.45987800  1
  H  432  1  0.99860700  0.03642500  0.32034200  1
  H  434  1  0.37323400  0.13349000  0.44606600  1
  H  447  1  0.53958800  0.30150600  0.16691500  1
  H  448  1  0.82496400  0.50620800  0.02802100  1
  H  450  1  0.49896800  0.45165100  0.16766600  1
  H  452  1  0.87333800  0.35427500  0.04204500  1
  H  465  1  0.29143100  0.66657900  0.68646900  1
  H  466  1  0.57615600  0.52811900  0.48147900  1
  H  468  1  0.24929000  0.66732500  0.53639400  1
  H  470  1  0.62396200  0.54154000  0.63345900  1
  H  483  1  0.79052000  0.82167200  0.80139100  1
  H  484  1  0.07608600  0.96014900  0.00637600  1
  H  486  1  0.74976200  0.82075600  0.95158200  1
  H  488  1  0.12454700  0.94640700  0.85432100  1
  H  501  1  0.43365100  0.29758000  0.30300700  1
  H  502  1  0.35709100  0.47725800  0.50195500  1
  H  504  1  0.57828800  0.43158200  0.33529100  1
  H  506  1  0.23321500  0.33384000  0.47489800  1
  H  519  1  0.93311000  0.19022800  0.18495600  1
  H  520  1  0.85740800  0.01063300  0.98588300  1
  H  522  1  0.07824600  0.05629300  0.15259400  1
  H  524  1  0.73318100  0.15399300  0.01294600  1
  H  537  1  0.18432600  0.80393700  0.69151900  1
  H  538  1  0.10669900  0.00155700  0.51061100  1
  H  540  1  0.32676100  0.83485000  0.55720600  1
  H  542  1  0.98228200  0.97516500  0.65423300  1
  H  555  1  0.68295000  0.68470800  0.79681500  1
  H  556  1  0.60605400  0.48661200  0.97745800  1
  H  558  1  0.82733900  0.65316400  0.93093900  1
  H  560  1  0.48287600  0.51293300  0.83377400  1
  N  279  1  0.99534000  0.09767300  0.61176000  1
  N  282  1  0.70061600  0.21941000  0.66643800  1
  N  287  1  0.64068300  0.16516400  0.59138900  1
  N  289  1  0.03442200  0.14220800  0.69557000  1
  N  297  1  0.49511700  0.39045600  0.87617100  1
  N  300  1  0.20060100  0.26854500  0.82171400  1
  N  305  1  0.14062100  0.32288800  0.89671200  1
  N  307  1  0.53415300  0.34584600  0.79240900  1
  N  315  1  0.24535300  0.37612200  0.59767900  1
  N  318  1  0.95158400  0.32101500  0.71955300  1
  N  323  1  0.89097800  0.39608600  0.66545200  1
  N  325  1  0.28496500  0.29229600  0.64195200  1
  N  333  1  0.74605300  0.11177500  0.89008600  1
  N  336  1  0.45141200  0.16682900  0.76847400  1
  N  341  1  0.39152700  0.09158800  0.82244400  1
  N  343  1  0.78482900  0.19579400  0.84595600  1
  N  351  1  0.46285400  0.58764900  0.11005700  1
  N  354  1  0.17448700  0.71003300  0.16786300  1
  N  359  1  0.10789500  0.65676300  0.09313400  1
  N  361  1  0.51440700  0.63457400  0.19125600  1
  N  369  1  0.96314600  0.90047800  0.37806900  1
  N  372  1  0.67471500  0.77799800  0.32050500  1
  N  377  1  0.60821400  0.83138200  0.39517600  1
  N  379  1  0.01449300  0.85348900  0.29689100  1
  N  387  1  0.71355400  0.87791300  0.08816000  1
  N  390  1  0.42576700  0.81942700  0.21041100  1
  N  395  1  0.35867200  0.89427500  0.15740100  1
  N  397  1  0.76524500  0.79651100  0.13453700  1
  N  405  1  0.21357100  0.61009800  0.40004700  1
  N  408  1  0.92536400  0.66849400  0.27787500  1
  N  413  1  0.85852600  0.59361800  0.33089100  1
  N  415  1  0.26507200  0.69155500  0.35355800  1
  N  423  1  0.13437300  0.16687100  0.37404400  1
  N  426  1  0.20776000  0.00123800  0.41347500  1
  N  431  1  0.06873600  0.02479600  0.33647900  1
  N  433  1  0.28936000  0.14357400  0.44608200  1
  N  441  1  0.63421600  0.32115500  0.11405900  1
  N  444  1  0.70827700  0.48671500  0.07441200  1
  N  449  1  0.56907200  0.46328600  0.15151800  1
  N  451  1  0.78940000  0.34427700  0.04200900  1
  N  459  1  0.38474500  0.61346000  0.66673900  1
  N  462  1  0.45926400  0.57438100  0.50109700  1
  N  467  1  0.31954900  0.65128700  0.52473700  1
  N  469  1  0.54002500  0.54152400  0.64346700  1
  N  477  1  0.88485800  0.87455400  0.82110900  1
  N  480  1  0.95975900  0.91367500  0.98676700  1
  N  485  1  0.82003900  0.83679400  0.96322300  1
  N  487  1  0.04056800  0.94642000  0.84436200  1
  N  495  1  0.36208600  0.31233600  0.36209200  1
  N  498  1  0.41445600  0.46505300  0.44008100  1
  N  503  1  0.52336800  0.44863800  0.35437400  1
  N  505  1  0.29415400  0.32415000  0.45323000  1
  N  513  1  0.86198200  0.17552300  0.12576900  1
  N  516  1  0.91409400  0.02274100  0.04784500  1
  N  521  1  0.02327900  0.03922300  0.13354200  1
  N  523  1  0.79407800  0.16369600  0.03462400  1
  N  531  1  0.11110000  0.86258700  0.67624400  1
  N  534  1  0.16320500  0.93963700  0.52304300  1
  N  539  1  0.27243100  0.85406200  0.54003500  1
  N  541  1  0.04327200  0.95351600  0.66392700  1
  N  549  1  0.61122200  0.62571900  0.81181900  1
  N  552  1  0.66375500  0.54837400  0.96491100  1
  N  557  1  0.77278300  0.63399700  0.94806600  1
  N  559  1  0.54384100  0.53455200  0.82399700  1
  O  280  1  0.83570300  0.10497700  0.56948800  1
  O  283  1  0.85782200  0.21099600  0.70966700  1
  O  298  1  0.33553900  0.38316700  0.91847900  1
  O  301  1  0.35758000  0.27701700  0.77839800  1
  O  316  1  0.08556900  0.41827500  0.60519500  1
  O  319  1  0.10888300  0.27789600  0.71090700  1
  O  334  1  0.58660900  0.06944300  0.88252800  1
  O  337  1  0.60842000  0.21011600  0.77714300  1
  O  352  1  0.29805000  0.59406900  0.07040200  1
  O  355  1  0.33906400  0.70343600  0.20752100  1
  O  370  1  0.79843700  0.89408900  0.41778900  1
  O  373  1  0.83913100  0.78459800  0.28075800  1
  O  388  1  0.54865600  0.91746000  0.09483900  1
  O  391  1  0.59040200  0.77985500  0.20354600  1
  O  406  1  0.04873300  0.57049300  0.39341200  1
  O  409  1  0.08993600  0.70812400  0.28468400  1
  O  424  1  0.03982000  0.11995700  0.33008400  1
  O  427  1  0.29991600  0.04823200  0.45806600  1
  O  442  1  0.53986100  0.36818300  0.15796700  1
  O  445  1  0.80037100  0.43959700  0.02992400  1
  O  460  1  0.29040000  0.65746500  0.61983300  1
  O  463  1  0.55145000  0.52979400  0.54808900  1
  O  478  1  0.79048600  0.83058500  0.86806300  1
  O  481  1  0.05198200  0.95822400  0.93973900  1
  O  496  1  0.45820400  0.36164700  0.32139600  1
  O  499  1  0.31608500  0.41573600  0.48003100  1
  O  514  1  0.95810900  0.12621300  0.16647400  1
  O  517  1  0.81598200  0.07208900  0.00785600  1
  O  532  1  0.20736400  0.82165000  0.62721500  1
  O  535  1  0.06502400  0.97988800  0.57214200  1
  O  550  1  0.70732900  0.66666667  0.86096000  1
  O  553  1  0.56566700  0.50813200  0.91573700  1
