# generated using pymatgen
data_La2Mg3H18C42(NO4)6
_symmetry_space_group_name_H-M   'P 1'
_cell_length_a   14.37500000
_cell_length_b   15.82189318
_cell_length_c   15.82248000
_cell_angle_alpha   119.99802049
_cell_angle_beta   90.00000000
_cell_angle_gamma   90.00000000
_symmetry_Int_Tables_number   1
_chemical_formula_structural   La2Mg3H18C42(NO4)6
_chemical_formula_sum   'La4 Mg6 H36 C84 N12 O48'
_cell_volume   3116.59343116
_cell_formula_units_Z   2
loop_
 _symmetry_equiv_pos_site_id
 _symmetry_equiv_pos_as_xyz
  1  'x, y, z'
loop_
 _atom_site_type_symbol
 _atom_site_label
 _atom_site_symmetry_multiplicity
 _atom_site_fract_x
 _atom_site_fract_y
 _atom_site_fract_z
 _atom_site_occupancy
  La  La1  1  0.75016000  0.33333333  0.66666667  1.0
  La  La2  1  0.75016000  0.66666667  0.33333333  1.0
  La  La3  1  0.24984000  0.66666667  0.33333333  1.0
  La  La4  1  0.24984000  0.33333333  0.66666667  1.0
  Mg  Mg1  1  0.00000000  0.50000000  0.50000000  1.0
  Mg  Mg2  1  0.00000000  0.00000000  0.50000000  1.0
  Mg  Mg3  1  0.00000000  0.50000000  0.00000000  1.0
  Mg  Mg4  1  0.50000000  0.50000000  0.50000000  1.0
  Mg  Mg5  1  0.50000000  0.50000000  0.00000000  1.0
  Mg  Mg6  1  0.50000000  0.00000000  0.50000000  1.0
  H  H1  1  0.85154000  0.71326000  0.75434000  1.0
  H  H2  1  0.85151000  0.04117000  0.28689000  1.0
  H  H3  1  0.85142000  0.24563000  0.95881000  1.0
  H  H4  1  0.85154000  0.28673000  0.24565000  1.0
  H  H5  1  0.85151000  0.95883000  0.71310000  1.0
  H  H6  1  0.85142000  0.75437000  0.04119000  1.0
  H  H7  1  0.64860000  0.75437000  0.71301000  1.0
  H  H8  1  0.64870000  0.28691000  0.04138000  1.0
  H  H9  1  0.64857000  0.95873000  0.24555000  1.0
  H  H10  1  0.64860000  0.24563000  0.28698000  1.0
  H  H11  1  0.64870000  0.71309000  0.95862000  1.0
  H  H12  1  0.64857000  0.04127000  0.75445000  1.0
  H  H13  1  0.14846000  0.28673000  0.24565000  1.0
  H  H14  1  0.14849000  0.95883000  0.71310000  1.0
  H  H15  1  0.14858000  0.75437000  0.04119000  1.0
  H  H16  1  0.14846000  0.71326000  0.75434000  1.0
  H  H17  1  0.14849000  0.04117000  0.28689000  1.0
  H  H18  1  0.14858000  0.24563000  0.95881000  1.0
  H  H19  1  0.35140000  0.24563000  0.28698000  1.0
  H  H20  1  0.35130000  0.71309000  0.95862000  1.0
  H  H21  1  0.35143000  0.04127000  0.75445000  1.0
  H  H22  1  0.35140000  0.75437000  0.71301000  1.0
  H  H23  1  0.35130000  0.28691000  0.04138000  1.0
  H  H24  1  0.35143000  0.95873000  0.24555000  1.0
  H  H25  1  0.75019000  0.80865000  0.90433000  1.0
  H  H26  1  0.75012000  0.09579000  0.19149000  1.0
  H  H27  1  0.75005000  0.09560000  0.90426000  1.0
  H  H28  1  0.75019000  0.19134000  0.09565000  1.0
  H  H29  1  0.75012000  0.90421000  0.80851000  1.0
  H  H30  1  0.75005000  0.90439000  0.09573000  1.0
  H  H31  1  0.24981000  0.19134000  0.09565000  1.0
  H  H32  1  0.24988000  0.90421000  0.80851000  1.0
  H  H33  1  0.24995000  0.90439000  0.09573000  1.0
  H  H34  1  0.24981000  0.80865000  0.90433000  1.0
  H  H35  1  0.24988000  0.09579000  0.19149000  1.0
  H  H36  1  0.24995000  0.09560000  0.90426000  1.0
  C  C1  1  0.80650000  0.67779000  0.78238000  1.0
  C  C2  1  0.80347000  0.57584000  0.73280000  1.0
  C  C3  1  0.86027000  0.51366000  0.64219000  1.0
  C  C4  1  0.80647000  0.10469000  0.32232000  1.0
  C  C5  1  0.80346000  0.15707000  0.42425000  1.0
  C  C6  1  0.86028000  0.12860000  0.48639000  1.0
  C  C7  1  0.80640000  0.21755000  0.89528000  1.0
  C  C8  1  0.80341000  0.26712000  0.84290000  1.0
  C  C9  1  0.86025000  0.35775000  0.87133000  1.0
  C  C10  1  0.80650000  0.32220000  0.21761000  1.0
  C  C11  1  0.80347000  0.42416000  0.26720000  1.0
  C  C12  1  0.86027000  0.48634000  0.35781000  1.0
  C  C13  1  0.80647000  0.89531000  0.67768000  1.0
  C  C14  1  0.80346000  0.84292000  0.57573000  1.0
  C  C15  1  0.86028000  0.87139000  0.51360000  1.0
  C  C16  1  0.80640000  0.78245000  0.10471000  1.0
  C  C17  1  0.80341000  0.73288000  0.15710000  1.0
  C  C18  1  0.86025000  0.64225000  0.12867000  1.0
  C  C19  1  0.69366000  0.78250000  0.67764000  1.0
  C  C20  1  0.69663000  0.73296000  0.57569000  1.0
  C  C21  1  0.63976000  0.64233000  0.51350000  1.0
  C  C22  1  0.69374000  0.32230000  0.10488000  1.0
  C  C23  1  0.69667000  0.42427000  0.15730000  1.0
  C  C24  1  0.63978000  0.48651000  0.12889000  1.0
  C  C25  1  0.69364000  0.89523000  0.21747000  1.0
  C  C26  1  0.69662000  0.84285000  0.26706000  1.0
  C  C27  1  0.63976000  0.87124000  0.35768000  1.0
  C  C28  1  0.69366000  0.21750000  0.32236000  1.0
  C  C29  1  0.69663000  0.26704000  0.42431000  1.0
  C  C30  1  0.63976000  0.35767000  0.48650000  1.0
  C  C31  1  0.69374000  0.67769000  0.89511000  1.0
  C  C32  1  0.69667000  0.57573000  0.84270000  1.0
  C  C33  1  0.63978000  0.51349000  0.87110000  1.0
  C  C34  1  0.69364000  0.10476000  0.78251000  1.0
  C  C35  1  0.69662000  0.15715000  0.73294000  1.0
  C  C36  1  0.63976000  0.12876000  0.64232000  1.0
  C  C37  1  0.19350000  0.32220000  0.21761000  1.0
  C  C38  1  0.19653000  0.42416000  0.26720000  1.0
  C  C39  1  0.13973000  0.48634000  0.35781000  1.0
  C  C40  1  0.19353000  0.89531000  0.67768000  1.0
  C  C41  1  0.19654000  0.84292000  0.57573000  1.0
  C  C42  1  0.13972000  0.87139000  0.51360000  1.0
  C  C43  1  0.19360000  0.78245000  0.10471000  1.0
  C  C44  1  0.19659000  0.73288000  0.15710000  1.0
  C  C45  1  0.13975000  0.64225000  0.12867000  1.0
  C  C46  1  0.19350000  0.67779000  0.78238000  1.0
  C  C47  1  0.19653000  0.57584000  0.73280000  1.0
  C  C48  1  0.13973000  0.51366000  0.64219000  1.0
  C  C49  1  0.19353000  0.10469000  0.32232000  1.0
  C  C50  1  0.19654000  0.15707000  0.42425000  1.0
  C  C51  1  0.13972000  0.12860000  0.48639000  1.0
  C  C52  1  0.19360000  0.21755000  0.89528000  1.0
  C  C53  1  0.19659000  0.26712000  0.84290000  1.0
  C  C54  1  0.13975000  0.35775000  0.87133000  1.0
  C  C55  1  0.30634000  0.21750000  0.32236000  1.0
  C  C56  1  0.30337000  0.26704000  0.42431000  1.0
  C  C57  1  0.36024000  0.35767000  0.48650000  1.0
  C  C58  1  0.30626000  0.67769000  0.89511000  1.0
  C  C59  1  0.30333000  0.57573000  0.84270000  1.0
  C  C60  1  0.36022000  0.51349000  0.87110000  1.0
  C  C61  1  0.30636000  0.10476000  0.78251000  1.0
  C  C62  1  0.30338000  0.15715000  0.73294000  1.0
  C  C63  1  0.36024000  0.12876000  0.64232000  1.0
  C  C64  1  0.30634000  0.78250000  0.67764000  1.0
  C  C65  1  0.30337000  0.73296000  0.57569000  1.0
  C  C66  1  0.36024000  0.64233000  0.51350000  1.0
  C  C67  1  0.30626000  0.32230000  0.10488000  1.0
  C  C68  1  0.30333000  0.42427000  0.15730000  1.0
  C  C69  1  0.36022000  0.48651000  0.12889000  1.0
  C  C70  1  0.30636000  0.89523000  0.21747000  1.0
  C  C71  1  0.30338000  0.84285000  0.26706000  1.0
  C  C72  1  0.36024000  0.87124000  0.35768000  1.0
  C  C73  1  0.75008000  0.72915000  0.86446000  1.0
  C  C74  1  0.75003000  0.13540000  0.27098000  1.0
  C  C75  1  0.74999000  0.13548000  0.86463000  1.0
  C  C76  1  0.75008000  0.27085000  0.13554000  1.0
  C  C77  1  0.75003000  0.86460000  0.72902000  1.0
  C  C78  1  0.74999000  0.86451000  0.13536000  1.0
  C  C79  1  0.24992000  0.27085000  0.13554000  1.0
  C  C80  1  0.24997000  0.86460000  0.72902000  1.0
  C  C81  1  0.25001000  0.86451000  0.13536000  1.0
  C  C82  1  0.24992000  0.72915000  0.86446000  1.0
  C  C83  1  0.24997000  0.13540000  0.27098000  1.0
  C  C84  1  0.25001000  0.13548000  0.86463000  1.0
  N  N1  1  0.75008000  0.52682000  0.76324000  1.0
  N  N2  1  0.75005000  0.23652000  0.47324000  1.0
  N  N3  1  0.75002000  0.23661000  0.76343000  1.0
  N  N4  1  0.75008000  0.47317000  0.23675000  1.0
  N  N5  1  0.75005000  0.76348000  0.52676000  1.0
  N  N6  1  0.75002000  0.76339000  0.23657000  1.0
  N  N7  1  0.24992000  0.47317000  0.23675000  1.0
  N  N8  1  0.24995000  0.76348000  0.52676000  1.0
  N  N9  1  0.24998000  0.76339000  0.23657000  1.0
  N  N10  1  0.24992000  0.52682000  0.76324000  1.0
  N  N11  1  0.24995000  0.23652000  0.47324000  1.0
  N  N12  1  0.24998000  0.23661000  0.76343000  1.0
  O  O1  1  0.90369000  0.55951000  0.60737000  1.0
  O  O2  1  0.86115000  0.42214000  0.60852000  1.0
  O  O3  1  0.90372000  0.04795000  0.44053000  1.0
  O  O4  1  0.86113000  0.18643000  0.57790000  1.0
  O  O5  1  0.90369000  0.39258000  0.95196000  1.0
  O  O6  1  0.86113000  0.39142000  0.81347000  1.0
  O  O7  1  0.90369000  0.44049000  0.39263000  1.0
  O  O8  1  0.86115000  0.57786000  0.39148000  1.0
  O  O9  1  0.90372000  0.95205000  0.55946000  1.0
  O  O10  1  0.86113000  0.81357000  0.42209000  1.0
  O  O11  1  0.90369000  0.60742000  0.04804000  1.0
  O  O12  1  0.86113000  0.60857000  0.18652000  1.0
  O  O13  1  0.59638000  0.60746000  0.55934000  1.0
  O  O14  1  0.63891000  0.60860000  0.42198000  1.0
  O  O15  1  0.59640000  0.44072000  0.04820000  1.0
  O  O16  1  0.63890000  0.57804000  0.18670000  1.0
  O  O17  1  0.59640000  0.95195000  0.39256000  1.0
  O  O18  1  0.63890000  0.81343000  0.39140000  1.0
  O  O19  1  0.59638000  0.39253000  0.44065000  1.0
  O  O20  1  0.63891000  0.39139000  0.57800000  1.0
  O  O21  1  0.59640000  0.55928000  0.95179000  1.0
  O  O22  1  0.63890000  0.42195000  0.81329000  1.0
  O  O23  1  0.59640000  0.04805000  0.60744000  1.0
  O  O24  1  0.63890000  0.18657000  0.60860000  1.0
  O  O25  1  0.09631000  0.44049000  0.39263000  1.0
  O  O26  1  0.13885000  0.57786000  0.39148000  1.0
  O  O27  1  0.09628000  0.95205000  0.55946000  1.0
  O  O28  1  0.13887000  0.81357000  0.42209000  1.0
  O  O29  1  0.09631000  0.60742000  0.04804000  1.0
  O  O30  1  0.13887000  0.60857000  0.18652000  1.0
  O  O31  1  0.09631000  0.55951000  0.60737000  1.0
  O  O32  1  0.13885000  0.42214000  0.60852000  1.0
  O  O33  1  0.09628000  0.04795000  0.44053000  1.0
  O  O34  1  0.13887000  0.18643000  0.57790000  1.0
  O  O35  1  0.09631000  0.39258000  0.95196000  1.0
  O  O36  1  0.13887000  0.39142000  0.81347000  1.0
  O  O37  1  0.40362000  0.39253000  0.44065000  1.0
  O  O38  1  0.36109000  0.39139000  0.57800000  1.0
  O  O39  1  0.40360000  0.55928000  0.95179000  1.0
  O  O40  1  0.36110000  0.42195000  0.81329000  1.0
  O  O41  1  0.40360000  0.04805000  0.60744000  1.0
  O  O42  1  0.36110000  0.18657000  0.60860000  1.0
  O  O43  1  0.40362000  0.60746000  0.55934000  1.0
  O  O44  1  0.36109000  0.60860000  0.42198000  1.0
  O  O45  1  0.40360000  0.44072000  0.04820000  1.0
  O  O46  1  0.36110000  0.57804000  0.18670000  1.0
  O  O47  1  0.40360000  0.95195000  0.39256000  1.0
  O  O48  1  0.36110000  0.81343000  0.39140000  1.0
