# generated using pymatgen
data_HoPH7C8NO8
_symmetry_space_group_name_H-M   'P 1'
_cell_length_a   9.58303000
_cell_length_b   10.31917000
_cell_length_c   15.55648000
_cell_angle_alpha   89.75047000
_cell_angle_beta   98.54029000
_cell_angle_gamma   89.67331000
_symmetry_Int_Tables_number   1
_chemical_formula_structural   HoPH7C8NO8
_chemical_formula_sum   'Ho4 P4 H28 C32 N4 O32'
_cell_volume   1521.25979680
_cell_formula_units_Z   4
loop_
 _symmetry_equiv_pos_site_id
 _symmetry_equiv_pos_as_xyz
  1  'x, y, z'
loop_
 _atom_site_type_symbol
 _atom_site_label
 _atom_site_symmetry_multiplicity
 _atom_site_fract_x
 _atom_site_fract_y
 _atom_site_fract_z
 _atom_site_occupancy
  Ho  Ho0  1  0.76987000  0.10395000  0.59968000  1
  Ho  Ho1  1  0.72950000  0.60068000  0.89624000  1
  Ho  Ho2  1  0.23000000  0.89605000  0.40031000  1
  Ho  Ho3  1  0.27061000  0.39933000  0.10379000  1
  P  P4  1  0.82314000  0.85243000  0.76793000  1
  P  P5  1  0.67553000  0.35279000  0.72982000  1
  P  P6  1  0.17684000  0.14755000  0.23208000  1
  P  P7  1  0.32448000  0.64722000  0.27017000  1
  H  H8  1  0.67451000  0.86259000  0.08045000  1
  H  H9  1  0.60810000  0.10045000  0.08716000  1
  H  H10  1  0.70674000  0.25702000  0.98695000  1
  H  H11  1  0.85603000  0.16957000  0.88133000  1
  H  H12  1  0.99775000  0.83296000  0.89487000  1
  H  H13  1  0.00463000  0.98708000  0.84176000  1
  H  H14  1  0.95187000  0.82434000  0.66798000  1
  H  H15  1  0.82506000  0.36774000  0.41750000  1
  H  H16  1  0.89191000  0.60501000  0.41203000  1
  H  H17  1  0.79476000  0.75987000  0.51377000  1
  H  H18  1  0.64572000  0.67151000  0.61910000  1
  H  H19  1  0.50094000  0.33717000  0.60226000  1
  H  H20  1  0.49360000  0.49049000  0.65554000  1
  H  H21  1  0.54712000  0.32455000  0.83036000  1
  H  H22  1  0.32544000  0.13740000  0.91956000  1
  H  H23  1  0.39194000  0.89954000  0.91288000  1
  H  H24  1  0.29335000  0.74297000  0.01304000  1
  H  H25  1  0.14402000  0.83040000  0.11870000  1
  H  H26  1  0.00226000  0.16702000  0.10512000  1
  H  H27  1  0.99534000  0.01292000  0.15825000  1
  H  H28  1  0.04805000  0.17563000  0.33197000  1
  H  H29  1  0.17490000  0.63224000  0.58251000  1
  H  H30  1  0.10802000  0.39497000  0.58799000  1
  H  H31  1  0.20515000  0.24013000  0.48624000  1
  H  H32  1  0.35424000  0.32847000  0.38093000  1
  H  H33  1  0.49901000  0.66278000  0.39774000  1
  H  H34  1  0.50634000  0.50947000  0.34445000  1
  H  H35  1  0.45438000  0.67502000  0.17026000  1
  C  C36  1  0.71166000  0.93746000  0.04034000  1
  C  C37  1  0.67711000  0.06772000  0.04195000  1
  C  C38  1  0.73012000  0.15404000  0.98555000  1
  C  C39  1  0.81506000  0.10594000  0.92754000  1
  C  C40  1  0.84922000  0.97460000  0.92630000  1
  C  C41  1  0.93492000  0.91478000  0.86461000  1
  C  C42  1  0.45753000  0.03347000  0.53243000  1
  C  C43  1  0.99320000  0.06298000  0.47324000  1
  C  C44  1  0.78846000  0.44204000  0.45816000  1
  C  C45  1  0.82335000  0.57190000  0.45733000  1
  C  C46  1  0.77101000  0.65717000  0.51452000  1
  C  C47  1  0.68600000  0.60865000  0.57228000  1
  C  C48  1  0.65080000  0.47784000  0.57234000  1
  C  C49  1  0.56366000  0.41768000  0.63308000  1
  C  C50  1  0.04279000  0.53211000  0.96724000  1
  C  C51  1  0.50873000  0.56289000  0.02697000  1
  C  C52  1  0.28833000  0.06252000  0.95968000  1
  C  C53  1  0.32292000  0.93227000  0.95808000  1
  C  C54  1  0.26994000  0.84595000  0.01449000  1
  C  C55  1  0.18497000  0.89403000  0.07248000  1
  C  C56  1  0.15077000  0.02537000  0.07372000  1
  C  C57  1  0.06507000  0.08520000  0.13539000  1
  C  C58  1  0.54252000  0.96652000  0.46757000  1
  C  C59  1  0.00672000  0.93708000  0.52672000  1
  C  C60  1  0.21152000  0.55794000  0.54186000  1
  C  C61  1  0.17662000  0.42808000  0.54269000  1
  C  C62  1  0.22895000  0.34281000  0.48551000  1
  C  C63  1  0.31396000  0.39133000  0.42775000  1
  C  C64  1  0.34918000  0.52213000  0.42768000  1
  C  C65  1  0.43628000  0.58227000  0.36693000  1
  C  C66  1  0.95765000  0.46801000  0.03282000  1
  C  C67  1  0.49366000  0.43696000  0.97441000  1
  N  N68  1  0.79696000  0.89247000  0.98384000  1
  N  N69  1  0.70327000  0.39668000  0.51451000  1
  N  N70  1  0.20304000  0.10752000  0.01618000  1
  N  N71  1  0.29672000  0.60328000  0.48552000  1
  O  O72  1  0.76249000  0.96794000  0.71358000  1
  O  O73  1  0.92912000  0.77154000  0.71857000  1
  O  O74  1  0.71481000  0.76024000  0.79718000  1
  O  O75  1  0.83327000  0.76841000  0.98660000  1
  O  O76  1  0.32375000  0.02587000  0.51499000  1
  O  O77  1  0.52693000  0.09022000  0.59653000  1
  O  O78  1  0.93123000  0.15786000  0.50188000  1
  O  O79  1  0.04839000  0.05908000  0.40355000  1
  O  O80  1  0.73657000  0.46724000  0.78382000  1
  O  O81  1  0.57002000  0.27266000  0.77960000  1
  O  O82  1  0.78398000  0.26014000  0.70049000  1
  O  O83  1  0.66656000  0.27308000  0.51100000  1
  O  O84  1  0.17661000  0.52673000  0.98675000  1
  O  O85  1  0.97327000  0.58425000  0.90070000  1
  O  O86  1  0.56872000  0.65695000  0.99616000  1
  O  O87  1  0.45672000  0.55927000  0.09798000  1
  O  O88  1  0.23753000  0.03207000  0.28642000  1
  O  O89  1  0.07090000  0.22848000  0.28143000  1
  O  O90  1  0.28513000  0.23979000  0.20277000  1
  O  O91  1  0.16677000  0.23159000  0.01343000  1
  O  O92  1  0.67632000  0.97414000  0.48502000  1
  O  O93  1  0.47310000  0.90977000  0.40348000  1
  O  O94  1  0.06878000  0.84220000  0.49810000  1
  O  O95  1  0.95159000  0.94093000  0.59644000  1
  O  O96  1  0.26348000  0.53280000  0.21611000  1
  O  O97  1  0.42987000  0.72746000  0.22046000  1
  O  O98  1  0.21600000  0.73985000  0.29954000  1
  O  O99  1  0.33343000  0.72691000  0.48900000  1
  O  O100  1  0.82394000  0.47343000  0.01335000  1
  O  O101  1  0.02710000  0.41571000  0.09937000  1
  O  O102  1  0.43124000  0.34331000  0.00390000  1
  O  O103  1  0.54858000  0.43990000  0.90444000  1
