# generated using pymatgen
data_H24C39N8
_symmetry_space_group_name_H-M   'P 1'
_cell_length_a   17.38190000
_cell_length_b   17.38190000
_cell_length_c   69.11800000
_cell_angle_alpha   90.00150000
_cell_angle_beta   90.00220000
_cell_angle_gamma   90.00000000
_symmetry_Int_Tables_number   1
_chemical_formula_structural   H24C39N8
_chemical_formula_sum   'H96 C156 N32'
_cell_volume   20882.65225536
_cell_formula_units_Z   4
loop_
 _symmetry_equiv_pos_site_id
 _symmetry_equiv_pos_as_xyz
  1  'x, y, z'
loop_
 _atom_site_type_symbol
 _atom_site_label
 _atom_site_symmetry_multiplicity
 _atom_site_fract_x
 _atom_site_fract_y
 _atom_site_fract_z
 _atom_site_occupancy
  C  1  1  0.95987500  0.91585800  0.12374200  1
  C  2  1  0.87827800  0.91724400  0.12310100  1
  C  3  1  0.87804000  0.06236100  0.12369700  1
  C  4  1  0.95965600  0.06404600  0.12432000  1
  C  5  1  0.99667500  0.13719100  0.12482400  1
  C  6  1  0.95467400  0.20696100  0.12491700  1
  C  7  1  0.87352900  0.20282200  0.12407900  1
  C  8  1  0.83585200  0.13170400  0.12356400  1
  C  9  1  0.83640400  0.84773800  0.12242700  1
  C  10  1  0.87437200  0.77671800  0.12254500  1
  C  11  1  0.95550800  0.77286400  0.12345900  1
  C  12  1  0.99715200  0.84281300  0.12378500  1
  C  13  1  0.05409100  0.99111800  0.10610600  1
  C  14  1  0.13562000  0.98922000  0.10677600  1
  C  15  1  0.13219600  0.98554700  0.14329100  1
  C  16  1  0.05062200  0.98848700  0.14306400  1
  C  17  1  0.17172900  0.98376600  0.16114000  1
  C  18  1  0.13144600  0.98650000  0.17870625  1
  C  19  1  0.05024300  0.99007300  0.17892900  1
  C  20  1  0.01102700  0.99032400  0.16103500  1
  C  21  1  0.01779800  0.99442400  0.08772500  1
  C  22  1  0.05997000  0.99689600  0.07025200  1
  C  23  1  0.14113600  0.99518200  0.07140200  1
  C  24  1  0.17830400  0.99106400  0.08939000  1
  C  37  1  0.00598600  0.98995500  0.12431300  1
  C  38  1  0.17845800  0.98531800  0.12528100  1
  C  41  1  0.83375500  0.98974500  0.12300600  1
  C  44  1  0.00944400  0.00003400  0.19598400  1
  C  45  1  0.99274000  0.70205200  0.12341100  1
  C  46  1  0.02087150  0.00132400  0.05274800  1
  C  50  1  0.99133300  0.27806800  0.12484300  1
  C  52  1  0.08939600  0.94097000  0.62459100  1
  C  53  1  0.08790700  0.85935600  0.62494900  1
  C  54  1  0.94277200  0.85943700  0.62437400  1
  C  55  1  0.94124800  0.94108000  0.62397800  1
  C  56  1  0.86819200  0.97831100  0.62369900  1
  C  57  1  0.79832300  0.93647100  0.62360500  1
  C  58  1  0.80229300  0.85528300  0.62420400  1
  C  59  1  0.87333000  0.81741600  0.62449600  1
  C  60  1  0.15738700  0.81739300  0.62546700  1
  C  61  1  0.22845400  0.85530600  0.62548000  1
  C  62  1  0.23237300  0.93648300  0.62485600  1
  C  63  1  0.16246700  0.97818100  0.62466500  1
  C  64  1  0.01685800  0.03318900  0.60564000  1
  C  65  1  0.01985700  0.11481100  0.60588400  1
  C  66  1  0.01832500  0.11538900  0.64238100  1
  C  67  1  0.01471200  0.03385500  0.64267600  1
  C  68  1  0.01782600  0.15702000  0.65992900  1
  C  69  1  0.01196700  0.11885700  0.67773500  1
  C  70  1  0.00755500  0.03777200  0.67849800  1
  C  71  1  0.00982600  0.99642800  0.66091200  1
  C  72  1  0.01610800  0.99517200  0.58741700  1
  C  73  1  0.01660500  0.03638700  0.56982100  1
  C  74  1  0.02027600  0.11752100  0.57052400  1
  C  75  1  0.02184800  0.15612200  0.58830800  1
  C  88  1  0.01541100  0.98720800  0.62420500  1
  C  89  1  0.02166900  0.15960500  0.62410200  1
  C  92  1  0.01531400  0.81497100  0.62491700  1
  C  95  1  0.99384800  0.99937700  0.69572800  1
  C  96  1  0.30315800  0.97374600  0.62508000  1
  C  97  1  0.01576400  0.99834400  0.55224100  1
  C  101  1  0.72726100  0.97320200  0.62386800  1
  C  103  1  0.03818800  0.91335800  0.87593000  1
  C  104  1  0.11981200  0.91474800  0.87641400  1
  C  105  1  0.12020700  0.05959700  0.87429000  1
  C  106  1  0.03857500  0.06132200  0.87391100  1
  C  107  1  0.00165300  0.13446700  0.87305800  1
  C  108  1  0.04366200  0.20422500  0.87246000  1
  C  109  1  0.12487300  0.19993900  0.87288300  1
  C  110  1  0.16248400  0.12883900  0.87369400  1
  C  111  1  0.16167600  0.84536800  0.87767900  1
  C  112  1  0.12369300  0.77439200  0.87809400  1
  C  113  1  0.04257000  0.77047400  0.87715500  1
  C  114  1  0.00087800  0.84036000  0.87647400  1
  C  115  1  0.94541400  0.99157700  0.89325500  1
  C  116  1  0.86381200  0.99098100  0.89294100  1
  C  117  1  0.86449100  0.98080600  0.85654100  1
  C  118  1  0.94607900  0.98317600  0.85629800  1
  C  119  1  0.82335000  0.97532700  0.83899600  1
  C  120  1  0.86206300  0.97344400  0.82122600  1
  C  121  1  0.94332600  0.97666600  0.82040700  1
  C  122  1  0.98404600  0.98082700  0.83809400  1
  C  123  1  0.98290100  0.99722000  0.91146300  1
  C  124  1  0.94171400  0.00290600  0.92903600  1
  C  125  1  0.86047700  0.00288900  0.92820100  1
  C  126  1  0.82217000  0.99660700  0.91042600  1
  C  139  1  0.99213200  0.98740700  0.87482900  1
  C  140  1  0.81957600  0.98460500  0.87471600  1
  C  143  1  0.16443200  0.98711300  0.87564900  1
  C  146  1  0.98277200  0.98045500  0.80289900  1
  C  147  1  0.00555600  0.69957300  0.87716800  1
  C  148  1  0.98131600  0.00874100  0.94642400  1
  C  152  1  0.00691100  0.27537400  0.87271200  1
  C  154  1  0.91535000  0.94026450  0.37555900  1
  C  155  1  0.91644300  0.85863400  0.37525400  1
  C  156  1  0.06150700  0.85800200  0.37423000  1
  C  157  1  0.06343550  0.93963800  0.37462000  1
  C  158  1  0.13668300  0.97649700  0.37439000  1
  C  159  1  0.20629100  0.93428650  0.37406900  1
  C  160  1  0.20193950  0.85316300  0.37332200  1
  C  161  1  0.13070000  0.81564700  0.37346600  1
  C  162  1  0.84678400  0.81695600  0.37543900  1
  C  163  1  0.77592000  0.85517100  0.37587600  1
  C  164  1  0.77231600  0.93640500  0.37630100  1
  C  165  1  0.84245800  0.97778200  0.37601450  1
  C  166  1  0.99163600  0.03215500  0.39375000  1
  C  167  1  0.99138000  0.11384300  0.39349500  1
  C  168  1  0.98618500  0.11441700  0.35706800  1
  C  169  1  0.98761800  0.03282000  0.35668700  1
  C  170  1  0.98366200  0.15633100  0.33959500  1
  C  171  1  0.98362200  0.11831900  0.32173200  1
  C  172  1  0.98554100  0.03708000  0.32078000  1
  C  173  1  0.98716000  0.99557050  0.33837100  1
  C  174  1  0.99422800  0.99430800  0.41199300  1
  C  175  1  0.99598200  0.03578900  0.42955100  1
  C  176  1  0.99704300  0.11697900  0.42879600  1
  C  177  1  0.99435400  0.15541900  0.41101700  1
  C  190  1  0.98957600  0.98615650  0.37516900  1
  C  191  1  0.98815000  0.15868800  0.37532800  1
  C  194  1  0.98875100  0.81388700  0.37450300  1
  C  197  1  0.99130800  0.99864900  0.30320500  1
  C  198  1  0.70161900  0.97401150  0.37605650  1
  C  199  1  0.99962600  0.99843100  0.44718900  1
  C  203  1  0.27748400  0.97063300  0.37392450  1
  C  205  1  0.03455800  0.93295700  0.24454700  1
  C  207  1  0.97906600  0.01042400  0.26912800  1
  C  209  1  0.96782000  0.04983000  0.23644100  1
  C  210  1  0.00955100  0.98467000  0.23015700  1
  C  215  1  0.05717900  0.01996100  0.74456000  1
  C  217  1  0.97126700  0.97468100  0.76868300  1
  C  219  1  0.93274400  0.97034600  0.73583900  1
  C  220  1  0.00366800  0.00228700  0.72989700  1
  C  225  1  0.07738500  0.00688800  0.00319200  1
  C  227  1  0.97670700  0.99156000  0.98033400  1
  C  229  1  0.94969800  0.97324500  0.01360000  1
  C  230  1  0.02668600  0.99051900  0.01855300  1
  C  235  1  0.90674600  0.04896800  0.50999300  1
  C  237  1  0.95603200  0.00758100  0.47976600  1
  C  239  1  0.01685500  0.96521300  0.50863000  1
  C  240  1  0.96472800  0.00849400  0.51993700  1
  C  245  1  0.02423600  0.52599200  0.12173900  1
  C  247  1  0.97439700  0.40947600  0.13469400  1
  C  249  1  0.92713400  0.52854400  0.14650500  1
  C  250  1  0.97503000  0.56973000  0.13374300  1
  C  255  1  0.47903200  0.00543500  0.62705100  1
  C  257  1  0.59581800  0.95716700  0.61390200  1
  C  259  1  0.47704900  0.91028600  0.60181700  1
  C  260  1  0.43552500  0.95719300  0.61474300  1
  C  265  1  0.97328500  0.52307400  0.87745200  1
  C  267  1  0.02441000  0.40798000  0.86399500  1
  C  269  1  0.07287900  0.52832500  0.85335400  1
  C  270  1  0.02343500  0.56813100  0.86602300  1
  C  275  1  0.52574200  0.00447500  0.37265400  1
  C  277  1  0.40770700  0.95526500  0.38487200  1
  C  279  1  0.52534400  0.90913800  0.39784700  1
  C  280  1  0.56806600  0.95653600  0.38528700  1
  H  25  1  0.17424300  0.99716500  0.05916500  1
  H  26  1  0.23719100  0.98994000  0.08971200  1
  H  27  1  0.23060900  0.98228100  0.16147300  1
  H  28  1  0.16233300  0.98783600  0.19131600  1
  H  29  1  0.95214300  0.99329200  0.16101200  1
  H  30  1  0.95889400  0.99543900  0.08715200  1
  H  31  1  0.05553200  0.13946500  0.12520700  1
  H  32  1  0.84067900  0.25171900  0.12364900  1
  H  33  1  0.77697800  0.13097200  0.12294700  1
  H  34  1  0.05599800  0.84069600  0.12426200  1
  H  35  1  0.77752700  0.84829300  0.12181800  1
  H  36  1  0.84176300  0.72770800  0.12187200  1
  H  39  1  0.21318000  0.93282600  0.12514700  1
  H  40  1  0.21741400  0.03472300  0.12582600  1
  H  42  1  0.79511600  0.98886600  0.13550700  1
  H  43  1  0.79865900  0.99052600  0.10985900  1
  H  47  1  0.96500200  0.01392500  0.05288000  1
  H  48  1  0.96042700  0.02960450  0.19561500  1
  H  49  1  0.04125300  0.69543800  0.11599000  1
  H  51  1  0.03786200  0.28589200  0.11671100  1
  H  76  1  0.02226400  0.14945100  0.55807700  1
  H  77  1  0.02448400  0.21498100  0.58832400  1
  H  78  1  0.01979000  0.21590400  0.65984800  1
  H  79  1  0.00881200  0.15121950  0.69008900  1
  H  80  1  0.00614800  0.93761700  0.66130700  1
  H  81  1  0.01421400  0.93628300  0.58700600  1
  H  82  1  0.86605700  0.03719000  0.62352500  1
  H  83  1  0.75333100  0.82253100  0.62462900  1
  H  84  1  0.87393600  0.75852200  0.62496500  1
  H  85  1  0.16464200  0.03704200  0.62439500  1
  H  86  1  0.15677200  0.75849300  0.62587600  1
  H  87  1  0.27744400  0.82264000  0.62604400  1
  H  90  1  0.07458200  0.19369800  0.62422500  1
  H  91  1  0.97269200  0.19916900  0.62392900  1
  H  93  1  0.01452300  0.77925700  0.63795800  1
  H  94  1  0.01606500  0.77692400  0.61230200  1
  H  98  1  0.05015500  0.95343000  0.55015500  1
  H  99  1  0.96220300  0.95163800  0.69544500  1
  H  100  1  0.30957600  0.02197400  0.63263100  1
  H  102  1  0.71972000  0.01977100  0.63200600  1
  H  127  1  0.82813800  0.00756000  0.94052500  1
  H  128  1  0.76325600  0.99658600  0.91033300  1
  H  129  1  0.76444700  0.97387400  0.83901000  1
  H  130  1  0.82970000  0.97135100  0.80886500  1
  H  131  1  0.04293300  0.98316600  0.83778800  1
  H  132  1  0.04182900  0.99732900  0.91184600  1
  H  133  1  0.94278200  0.13677600  0.87299500  1
  H  134  1  0.15788400  0.24874800  0.87296200  1
  H  135  1  0.22138700  0.12808300  0.87414300  1
  H  136  1  0.94204000  0.83818800  0.87598500  1
  H  137  1  0.22057100  0.84595500  0.87818100  1
  H  138  1  0.15629200  0.72542800  0.87899800  1
  H  141  1  0.78403100  0.93277500  0.87561300  1
  H  142  1  0.78139000  0.03452500  0.87377500  1
  H  144  1  0.20263800  0.98410900  0.86308500  1
  H  145  1  0.19997700  0.99001400  0.88870200  1
  H  149  1  0.03607150  0.02564500  0.94630800  1
  H  150  1  0.03767900  0.99680000  0.80279100  1
  H  151  1  0.95694500  0.69262400  0.88452600  1
  H  153  1  0.95909300  0.28218400  0.88042300  1
  H  178  1  0.99992500  0.14912200  0.44119900  1
  H  179  1  0.99478800  0.21434200  0.41096400  1
  H  180  1  0.98311900  0.21524900  0.33973800  1
  H  181  1  0.98387600  0.15107600  0.30942300  1
  H  182  1  0.98890900  0.93668900  0.33789900  1
  H  183  1  0.99430800  0.93540200  0.41245600  1
  H  184  1  0.13919200  0.03534700  0.37471600  1
  H  185  1  0.25075350  0.82024750  0.37264800  1
  H  186  1  0.12975600  0.75675200  0.37302400  1
  H  187  1  0.84062200  0.03666550  0.37613100  1
  H  188  1  0.84709650  0.75804700  0.37506000  1
  H  189  1  0.72682300  0.82261100  0.37563900  1
  H  192  1  0.93670000  0.19491100  0.37583300  1
  H  193  1  0.03869200  0.19620950  0.37489700  1
  H  195  1  0.98713500  0.77808900  0.36148000  1
  H  196  1  0.98999200  0.77592000  0.38713100  1
  H  200  1  0.03966900  0.95849600  0.44937600  1
  H  201  1  0.01546100  0.94673600  0.30282100  1
  H  202  1  0.69591000  0.02307500  0.36881450  1
  H  204  1  0.28584200  0.01647050  0.36558050  1
  H  211  1  0.06735400  0.88615800  0.24104300  1
  H  213  1  0.95107550  0.09163900  0.22695400  1
  H  221  1  0.10840600  0.04577500  0.74129500  1
  H  223  1  0.88973800  0.95979600  0.72612200  1
  H  231  1  0.13400400  0.01916000  0.00576100  1
  H  233  1  0.91018700  0.95892900  0.02392200  1
  H  241  1  0.86916800  0.08391200  0.51723700  1
  H  243  1  0.06252500  0.93767100  0.51482200  1
  H  251  1  0.05788900  0.55204600  0.11155600  1
  H  253  1  0.88823900  0.55644100  0.15511400  1
  H  261  1  0.45272600  0.03826100  0.63736400  1
  H  263  1  0.44938700  0.87190100  0.59301600  1
  H  271  1  0.93841200  0.54809400  0.88753900  1
  H  273  1  0.11280500  0.55711700  0.84524100  1
  H  281  1  0.55301750  0.03730700  0.36250300  1
  H  283  1  0.55216350  0.87069000  0.40679600  1
  N  206  1  0.01964900  0.94740200  0.26347000  1
  N  208  1  0.95486100  0.06120200  0.25555100  1
  N  212  1  0.97237000  0.03187600  0.28730700  1
  N  214  1  0.03563300  0.97594100  0.21227600  1
  N  216  1  0.03966400  0.00638100  0.76339000  1
  N  218  1  0.91844500  0.95836400  0.75485800  1
  N  222  1  0.94818200  0.96880300  0.78674900  1
  N  224  1  0.01674300  0.02657400  0.71203200  1
  N  226  1  0.05137600  0.00738200  0.98469400  1
  N  228  1  0.92714600  0.97427900  0.99483600  1
  N  232  1  0.94930800  0.99106600  0.96256800  1
  N  234  1  0.05433700  0.98981000  0.03642200  1
  N  236  1  0.90508100  0.04870600  0.49040900  1
  N  238  1  0.01227900  0.96747200  0.48902300  1
  N  242  1  0.95822100  0.02362000  0.46119400  1
  N  244  1  0.97435600  0.02515800  0.53843100  1
  N  246  1  0.02149500  0.44776800  0.12224500  1
  N  248  1  0.92721500  0.45063300  0.14638300  1
  N  252  1  0.96000900  0.33519600  0.13361600  1
  N  254  1  0.96134300  0.64429400  0.13190200  1
  N  256  1  0.55727000  0.00305800  0.62657900  1
  N  258  1  0.55495400  0.91060600  0.60199200  1
  N  262  1  0.67002400  0.94248500  0.61500600  1
  N  264  1  0.36103400  0.94297200  0.61649900  1
  N  266  1  0.97611300  0.44492900  0.87641100  1
  N  268  1  0.07294300  0.45043900  0.85296700  1
  N  272  1  0.03909400  0.33369700  0.86466500  1
  N  274  1  0.03676900  0.64251200  0.86834400  1
  N  276  1  0.44750000  0.00149000  0.37251900  1
  N  278  1  0.44749400  0.90893000  0.39706900  1
  N  282  1  0.33364250  0.94052500  0.38333400  1
  N  284  1  0.64271100  0.94235200  0.38396900  1
