# generated using pymatgen
data_CuH6C21(N3O7)2
_symmetry_space_group_name_H-M   'P 1'
_cell_length_a   7.50709000
_cell_length_b   8.65917000
_cell_length_c   27.79621000
_cell_angle_alpha   93.14486000
_cell_angle_beta   95.55517000
_cell_angle_gamma   102.01505000
_symmetry_Int_Tables_number   1
_chemical_formula_structural   CuH6C21(N3O7)2
_chemical_formula_sum   'Cu2 H12 C42 N12 O28'
_cell_volume   1753.78354114
_cell_formula_units_Z   2
loop_
 _symmetry_equiv_pos_site_id
 _symmetry_equiv_pos_as_xyz
  1  'x, y, z'
loop_
 _atom_site_type_symbol
 _atom_site_label
 _atom_site_symmetry_multiplicity
 _atom_site_fract_x
 _atom_site_fract_y
 _atom_site_fract_z
 _atom_site_occupancy
  Cu  Cu0  1  0.31562000  0.48262000  0.49462000  1
  Cu  Cu1  1  0.68438000  0.51738000  0.50538000  1
  H  H2  1  0.23762000  0.55799000  0.64664000  1
  H  H3  1  0.20642000  0.45471000  0.33951000  1
  H  H4  1  0.74644000  0.86859000  0.88831000  1
  H  H5  1  0.30834000  0.12036000  0.11148000  1
  H  H6  1  0.79854000  0.56155000  0.26934000  1
  H  H7  1  0.76324000  0.41897000  0.74371000  1
  H  H8  1  0.71889000  0.89187000  0.04482000  1
  H  H9  1  0.36353000  0.09296000  0.95635000  1
  H  H10  1  0.75537000  0.87904000  0.97318000  1
  H  H11  1  0.31053000  0.10821000  0.02692000  1
  H  H12  1  0.79783000  0.55430000  0.35699000  1
  H  H13  1  0.76238000  0.42748000  0.65596000  1
  C  C14  1  0.54438000  0.79928000  0.50369000  1
  C  C15  1  0.45567000  0.20073000  0.49617000  1
  C  C16  1  0.49962000  0.49908000  0.59235000  1
  C  C17  1  0.50039000  0.50002000  0.40759000  1
  C  C18  1  0.59714000  0.61950000  0.82531000  1
  C  C19  1  0.44283000  0.37204000  0.17450000  1
  C  C20  1  0.44679000  0.34683000  0.81782000  1
  C  C21  1  0.58594000  0.64643000  0.18232000  1
  C  C22  1  0.64813000  0.44967000  0.72271000  1
  C  C23  1  0.66897000  0.53831000  0.28448000  1
  C  C24  1  0.64755000  0.45523000  0.67285000  1
  C  C25  1  0.66801000  0.53355000  0.33438000  1
  C  C26  1  0.35225000  0.52849000  0.66808000  1
  C  C27  1  0.33590000  0.47722000  0.32422000  1
  C  C28  1  0.35240000  0.52672000  0.71859000  1
  C  C29  1  0.33531000  0.48321000  0.27393000  1
  C  C30  1  0.50270000  0.48538000  0.74588000  1
  C  C31  1  0.50419000  0.51275000  0.25391000  1
  C  C32  1  0.53521000  0.48373000  0.89806000  1
  C  C33  1  0.52091000  0.50528000  0.10226000  1
  C  C34  1  0.60662000  0.62258000  0.87590000  1
  C  C35  1  0.44533000  0.36712000  0.12417000  1
  C  C36  1  0.68624000  0.76169000  0.90449000  1
  C  C37  1  0.37164000  0.22680000  0.09556000  1
  C  C38  1  0.46200000  0.34132000  0.86878000  1
  C  C39  1  0.58927000  0.64850000  0.13152000  1
  C  C40  1  0.49950000  0.49426000  0.64511000  1
  C  C41  1  0.50151000  0.50282000  0.35471000  1
  C  C42  1  0.60414000  0.63840000  0.02921000  1
  C  C43  1  0.46408000  0.34837000  0.97143000  1
  C  C44  1  0.45647000  0.35440000  0.02244000  1
  C  C45  1  0.61035000  0.63264000  0.97810000  1
  C  C46  1  0.52757000  0.49941000  0.05113000  1
  C  C47  1  0.53668000  0.48813000  0.94939000  1
  C  C48  1  0.66743000  0.78040000  0.05912000  1
  C  C49  1  0.40467000  0.20563000  0.94166000  1
  C  C50  1  0.65981000  0.78737000  0.10906000  1
  C  C51  1  0.40374000  0.20024000  0.89143000  1
  C  C52  1  0.68901000  0.76686000  0.95444000  1
  C  C53  1  0.37562000  0.22047000  0.04583000  1
  C  C54  1  0.55784000  0.96496000  0.51335000  1
  C  C55  1  0.44251000  0.03513000  0.48627000  1
  N  N56  1  0.51418000  0.48425000  0.79758000  1
  N  N57  1  0.51029000  0.51056000  0.20234000  1
  N  N58  1  0.96149000  0.54357000  0.51349000  1
  N  N59  1  0.03851000  0.45643000  0.48651000  1
  N  N60  1  0.06673000  0.69143000  0.52981000  1
  N  N61  1  0.93132000  0.31122000  0.46825000  1
  N  N62  1  0.20239000  0.56976000  0.74114000  1
  N  N63  1  0.16349000  0.45946000  0.24383000  1
  N  N64  1  0.71839000  0.93933000  0.13560000  1
  N  N65  1  0.35170000  0.04814000  0.86469000  1
  N  N66  1  0.66413000  0.04014000  0.55785000  1
  N  N67  1  0.33705000  0.96045000  0.44158000  1
  O  O68  1  0.38022000  0.71388000  0.49650000  1
  O  O69  1  0.61978000  0.28612000  0.50350000  1
  O  O70  1  0.69164000  0.74322000  0.50559000  1
  O  O71  1  0.30836000  0.25678000  0.49441000  1
  O  O72  1  0.34431000  0.48530000  0.56519000  1
  O  O73  1  0.65569000  0.51470000  0.43481000  1
  O  O74  1  0.65572000  0.51465000  0.57428000  1
  O  O75  1  0.34428000  0.48535000  0.42572000  1
  O  O76  1  0.66845000  0.75097000  0.80381000  1
  O  O77  1  0.37443000  0.23897000  0.19565000  1
  O  O78  1  0.65880000  0.77782000  0.21181000  1
  O  O79  1  0.36062000  0.21850000  0.78847000  1
  O  O80  1  0.05714000  0.81096000  0.50411000  1
  O  O81  1  0.12888000  0.71913000  0.57543000  1
  O  O82  1  0.93977000  0.18693000  0.49181000  1
  O  O83  1  0.86964000  0.29115000  0.42249000  1
  O  O84  1  0.09338000  0.64564000  0.71767000  1
  O  O85  1  0.16966000  0.53084000  0.78447000  1
  O  O86  1  0.01911000  0.36443000  0.25589000  1
  O  O87  1  0.14738000  0.53906000  0.20586000  1
  O  O88  1  0.59878000  0.00393000  0.15538000  1
  O  O89  1  0.87828000  0.02660000  0.13084000  1
  O  O90  1  0.46887000  0.99767000  0.83969000  1
  O  O91  1  0.20501000  0.94833000  0.87327000  1
  O  O92  1  0.81648000  0.99964000  0.57274000  1
  O  O93  1  0.59223000  0.12352000  0.58794000  1
  O  O94  1  0.18737000  0.00396000  0.42592000  1
  O  O95  1  0.40804000  0.87450000  0.41202000  1
