# generated using pymatgen
data_H20C41(NO)8
_symmetry_space_group_name_H-M   'P 1'
_cell_length_a   25.93710000
_cell_length_b   35.24890000
_cell_length_c   35.24890000
_cell_angle_alpha   90.00000000
_cell_angle_beta   90.00000000
_cell_angle_gamma   90.00000000
_symmetry_Int_Tables_number   1
_chemical_formula_structural   H20C41(NO)8
_chemical_formula_sum   'H80 C164 N32 O32'
_cell_volume   32226.45642803
_cell_formula_units_Z   4
loop_
 _symmetry_equiv_pos_site_id
 _symmetry_equiv_pos_as_xyz
  1  'x, y, z'
loop_
 _atom_site_type_symbol
 _atom_site_label
 _atom_site_symmetry_multiplicity
 _atom_site_fract_x
 _atom_site_fract_y
 _atom_site_fract_z
 _atom_site_occupancy
  H  25  1  0.03780100  0.13805100  0.26079200  1
  H  26  1  0.09648700  0.11947200  0.30923800  1
  H  27  1  0.14256500  0.09588800  0.36215600  1
  H  28  1  0.18271400  0.06296000  0.41308200  1
  H  29  1  0.07040300  0.97608100  0.40606900  1
  H  30  1  0.94410300  0.04261300  0.28429300  1
  H  31  1  0.95459700  0.04741900  0.40552500  1
  H  32  1  0.84413000  0.95909400  0.40888400  1
  H  33  1  0.88681400  0.92747300  0.35832900  1
  H  34  1  0.08872900  0.98284200  0.28729700  1
  H  35  1  0.93928700  0.90223000  0.30991300  1
  H  36  1  0.00328400  0.88287900  0.26562600  1
  H  66  1  0.53770400  0.88707700  0.76440700  1
  H  67  1  0.59637300  0.90563400  0.71594300  1
  H  68  1  0.64248900  0.92922600  0.66305600  1
  H  69  1  0.68267400  0.96215800  0.61215000  1
  H  70  1  0.57037600  0.04904700  0.61914000  1
  H  71  1  0.44403200  0.98253300  0.74091100  1
  H  72  1  0.45448800  0.97776100  0.61965900  1
  H  73  1  0.34417400  0.06620000  0.61626000  1
  H  74  1  0.38686300  0.09775600  0.66686600  1
  H  75  1  0.58867800  0.04220900  0.73791200  1
  H  76  1  0.43939400  0.12296200  0.71528200  1
  H  77  1  0.50339100  0.14222800  0.75960700  1
  H  107  1  0.28772400  0.76432700  0.13812900  1
  H  108  1  0.34636200  0.71584900  0.11955900  1
  H  109  1  0.39249200  0.66299100  0.09590900  1
  H  110  1  0.43267000  0.61211600  0.06293400  1
  H  111  1  0.32039600  0.61919100  0.97604500  1
  H  112  1  0.19407500  0.74092800  0.04263300  1
  H  113  1  0.20455400  0.61969000  0.04739000  1
  H  114  1  0.09422700  0.61625700  0.95896000  1
  H  115  1  0.13687600  0.66687200  0.92739900  1
  H  116  1  0.33869600  0.73794400  0.98289000  1
  H  117  1  0.18941400  0.71525100  0.90215000  1
  H  118  1  0.25340500  0.75956700  0.88285900  1
  H  148  1  0.78772400  0.26088200  0.88700100  1
  H  149  1  0.84637400  0.30934900  0.90558600  1
  H  150  1  0.89249700  0.36221300  0.92924300  1
  H  151  1  0.93266000  0.41309900  0.96221700  1
  H  152  1  0.82035000  0.40602700  0.04908400  1
  H  153  1  0.69408300  0.28425800  0.98250400  1
  H  154  1  0.70456600  0.40556200  0.97775000  1
  H  155  1  0.59411800  0.40890900  0.06610000  1
  H  156  1  0.63676300  0.35829200  0.09766600  1
  H  157  1  0.83870500  0.28732800  0.04228600  1
  H  158  1  0.68925900  0.30989100  0.12289700  1
  H  159  1  0.75326800  0.26561800  0.14223200  1
  H  170  1  0.90684300  0.21200400  0.23627000  1
  H  172  1  0.90640400  0.11088900  0.17302600  1
  H  180  1  0.94477700  0.15812400  0.26203100  1
  H  182  1  0.79429400  0.20341100  0.12014200  1
  H  188  1  0.40648700  0.81320000  0.78892100  1
  H  190  1  0.40652200  0.91427500  0.85223100  1
  H  198  1  0.44471000  0.86701700  0.76321500  1
  H  200  1  0.29410600  0.82184400  0.90497900  1
  H  206  1  0.15672300  0.78891500  0.21203100  1
  H  208  1  0.15636900  0.85215100  0.11091500  1
  H  216  1  0.19471500  0.76313900  0.15815000  1
  H  218  1  0.04414000  0.90504400  0.20341300  1
  H  224  1  0.65659200  0.23622900  0.81315400  1
  H  226  1  0.65653400  0.17297400  0.91425800  1
  H  234  1  0.69471100  0.26200600  0.86698600  1
  H  236  1  0.54422800  0.12018300  0.82184100  1
  H  242  1  0.79332300  0.06437100  0.56507300  1
  H  244  1  0.67592300  0.00360300  0.51036200  1
  H  252  1  0.72676900  0.02596000  0.59965000  1
  H  254  1  0.80098700  0.02860200  0.41688400  1
  H  260  1  0.29327200  0.96060600  0.46024100  1
  H  262  1  0.17605900  0.02172800  0.51476800  1
  H  270  1  0.22683900  0.99918300  0.42560500  1
  H  272  1  0.30097000  0.99665800  0.60837600  1
  H  278  1  0.04326700  0.46022700  0.06458800  1
  H  280  1  0.92604400  0.51472000  0.00345800  1
  H  288  1  0.97681600  0.42558200  0.02599500  1
  H  290  1  0.05099900  0.60830300  0.02834600  1
  H  296  1  0.54333300  0.56503600  0.96071100  1
  H  298  1  0.42598800  0.51038800  0.02159700  1
  H  306  1  0.47685300  0.59958500  0.99919700  1
  H  308  1  0.55098300  0.41686700  0.99655000  1
  C  1  1  0.01896300  0.97771800  0.31839000  1
  C  2  1  0.97646600  0.95401800  0.32427700  1
  C  3  1  0.94520900  0.96929800  0.35196300  1
  C  4  1  0.96585500  0.00372500  0.36485400  1
  C  5  1  0.93988500  0.02269900  0.39503900  1
  C  6  1  0.89386600  0.00710100  0.41092600  1
  C  7  1  0.87566000  0.97185400  0.39703900  1
  C  8  1  0.90055100  0.95302300  0.36740700  1
  C  9  1  0.96994200  0.91962300  0.30480900  1
  C  10  1  0.00750600  0.90864700  0.27860500  1
  C  11  1  0.05090100  0.93186200  0.27091900  1
  C  12  1  0.05695900  0.96629400  0.29158900  1
  C  13  1  0.01112200  0.04750800  0.31852900  1
  C  14  1  0.05401700  0.07054600  0.32551400  1
  C  15  1  0.08342500  0.05494500  0.35409000  1
  C  16  1  0.06150000  0.02066900  0.36613600  1
  C  17  1  0.12792200  0.07039300  0.37061300  1
  C  18  1  0.15139800  0.05073600  0.40036100  1
  C  19  1  0.13194400  0.01543600  0.41324400  1
  C  20  1  0.08605400  0.00080300  0.39633600  1
  C  21  1  0.97567500  0.05897300  0.28988700  1
  C  22  1  0.98382600  0.09327600  0.26932100  1
  C  23  1  0.02960600  0.11419800  0.27617800  1
  C  24  1  0.06424500  0.10356200  0.30460200  1
  C  37  1  0.01417800  0.01249400  0.34277400  1
  C  42  1  0.51893600  0.04740000  0.70681400  1
  C  43  1  0.47648300  0.07114300  0.70091500  1
  C  44  1  0.44522700  0.05590200  0.67321000  1
  C  45  1  0.46581900  0.02145500  0.66032100  1
  C  46  1  0.43982100  0.00250200  0.63013300  1
  C  47  1  0.39391800  0.01820600  0.61416700  1
  C  48  1  0.37570000  0.05342600  0.62809600  1
  C  49  1  0.40061900  0.07222900  0.65773700  1
  C  50  1  0.47002900  0.10554800  0.72037700  1
  C  51  1  0.50758200  0.11646300  0.74661900  1
  C  52  1  0.55091700  0.09319600  0.75434400  1
  C  53  1  0.55693500  0.05878800  0.73362600  1
  C  54  1  0.51102800  0.97761600  0.70665200  1
  C  55  1  0.55392800  0.95457700  0.69968100  1
  C  56  1  0.58334200  0.97016600  0.67110200  1
  C  57  1  0.56143500  0.00445100  0.65906200  1
  C  58  1  0.62783800  0.95471300  0.65458500  1
  C  59  1  0.65134800  0.97437900  0.62485900  1
  C  60  1  0.63190900  0.00968500  0.61197900  1
  C  61  1  0.58601400  0.02432100  0.62887300  1
  C  62  1  0.47560000  0.96616600  0.73531400  1
  C  63  1  0.48376600  0.93187900  0.75590400  1
  C  64  1  0.52951500  0.91093100  0.74902200  1
  C  65  1  0.56415700  0.92156300  0.72059800  1
  C  78  1  0.51411300  0.01263700  0.68241800  1
  C  83  1  0.26895500  0.70683600  0.97771800  1
  C  84  1  0.22647000  0.70095800  0.95400400  1
  C  85  1  0.19524200  0.67323500  0.96924700  1
  C  86  1  0.21584100  0.66036100  0.00369900  1
  C  87  1  0.18987500  0.63015900  0.02265100  1
  C  88  1  0.14396800  0.61418400  0.00695900  1
  C  89  1  0.12574600  0.62810200  0.97173500  1
  C  90  1  0.15064000  0.65774800  0.95292600  1
  C  91  1  0.22004600  0.72036000  0.91956300  1
  C  92  1  0.25759800  0.74659600  0.90863000  1
  C  93  1  0.30092200  0.75434400  0.93189900  1
  C  94  1  0.30695300  0.73364300  0.96631400  1
  C  95  1  0.26112300  0.70671400  0.04749400  1
  C  96  1  0.30396400  0.69967000  0.07056800  1
  C  97  1  0.33333333  0.67108800  0.05496400  1
  C  98  1  0.31146400  0.65908200  0.02066500  1
  C  99  1  0.37784500  0.65454800  0.07040900  1
  C  100  1  0.40135500  0.62484200  0.05071400  1
  C  101  1  0.38195800  0.61200800  0.01537700  1
  C  102  1  0.33603800  0.62890500  0.00077700  1
  C  103  1  0.22563700  0.73531700  0.05899900  1
  C  104  1  0.23380100  0.75587900  0.09330300  1
  C  105  1  0.27954000  0.74896800  0.11425700  1
  C  106  1  0.31417600  0.72055000  0.10360500  1
  C  119  1  0.26415000  0.68245200  0.01249100  1
  C  124  1  0.76889400  0.31836200  0.04738900  1
  C  125  1  0.72636800  0.32421200  0.07107400  1
  C  126  1  0.69515800  0.35194600  0.05583700  1
  C  127  1  0.71578900  0.36483700  0.02140200  1
  C  128  1  0.68985700  0.39506800  0.00246800  1
  C  129  1  0.64388800  0.41098300  0.01811400  1
  C  130  1  0.62565600  0.39707300  0.05334000  1
  C  131  1  0.65054700  0.36742700  0.07214800  1
  C  132  1  0.71989100  0.30477300  0.10548600  1
  C  133  1  0.75746700  0.27857200  0.11645100  1
  C  134  1  0.80084500  0.27086100  0.09322300  1
  C  135  1  0.80690900  0.29157800  0.05881900  1
  C  136  1  0.76107200  0.31853200  0.97760500  1
  C  137  1  0.80397500  0.32552500  0.95457700  1
  C  138  1  0.83334600  0.35412500  0.97017500  1
  C  139  1  0.81143600  0.36613600  0.00446500  1
  C  140  1  0.87783900  0.37066400  0.95473600  1
  C  141  1  0.90133400  0.40037600  0.97443000  1
  C  142  1  0.88192500  0.41321000  0.00976500  1
  C  143  1  0.83600700  0.39631000  0.02435900  1
  C  144  1  0.72563600  0.28988100  0.96613200  1
  C  145  1  0.73380200  0.26932600  0.93182500  1
  C  146  1  0.77953900  0.27624100  0.91087100  1
  C  147  1  0.81417700  0.30465600  0.92152900  1
  C  160  1  0.76411700  0.34276500  0.01262800  1
  C  165  1  0.90993500  0.15800700  0.20998400  1
  C  166  1  0.89869700  0.19724300  0.21196300  1
  C  167  1  0.87493200  0.21713200  0.18184100  1
  C  168  1  0.86281000  0.19765500  0.14761700  1
  C  169  1  0.87420700  0.15826600  0.14488500  1
  C  171  1  0.89830000  0.13917300  0.17565300  1
  C  179  1  0.93501500  0.14094200  0.24069300  1
  C  181  1  0.82954500  0.21459400  0.12160100  1
  C  183  1  0.40984900  0.86716500  0.81525400  1
  C  184  1  0.39840200  0.82796300  0.81324000  1
  C  185  1  0.37461300  0.80810200  0.84336800  1
  C  186  1  0.36262600  0.82758300  0.87760700  1
  C  187  1  0.37418300  0.86694900  0.88037400  1
  C  189  1  0.39829400  0.88601100  0.84959200  1
  C  197  1  0.43493700  0.88421200  0.78453500  1
  C  199  1  0.32941800  0.81078000  0.90379000  1
  C  201  1  0.15990000  0.81520800  0.15804300  1
  C  202  1  0.14856300  0.81321400  0.19726000  1
  C  203  1  0.12478700  0.84334300  0.21713200  1
  C  204  1  0.11268800  0.87757900  0.19767100  1
  C  205  1  0.12412700  0.88029100  0.15827800  1
  C  207  1  0.14825400  0.84953000  0.13919800  1
  C  215  1  0.18498300  0.78449500  0.14098800  1
  C  217  1  0.07943100  0.90368800  0.21449700  1
  C  219  1  0.65990800  0.20993100  0.86713600  1
  C  220  1  0.64852200  0.21191400  0.82792400  1
  C  221  1  0.62474200  0.18177300  0.80807300  1
  C  222  1  0.61272800  0.14752500  0.82754400  1
  C  223  1  0.62425200  0.14481200  0.86692300  1
  C  225  1  0.64836000  0.17559500  0.88598500  1
  C  233  1  0.68499900  0.24065500  0.88416400  1
  C  235  1  0.57952100  0.12136700  0.81072300  1
  C  237  1  0.72839200  0.03609300  0.54256700  1
  C  238  1  0.77814000  0.05241900  0.54106900  1
  C  239  1  0.80900700  0.05130900  0.50780900  1
  C  240  1  0.79017300  0.03322500  0.47448600  1
  C  241  1  0.74016300  0.01597300  0.47598600  1
  C  243  1  0.71043800  0.01772500  0.50953900  1
  C  251  1  0.70387200  0.03100800  0.57750200  1
  C  253  1  0.81995200  0.03003400  0.44135800  1
  C  255  1  0.22845000  0.98907500  0.48265000  1
  C  256  1  0.27814400  0.97267400  0.48420500  1
  C  257  1  0.30898500  0.97379500  0.51747400  1
  C  258  1  0.29020000  0.99199700  0.55074900  1
  C  259  1  0.24024800  0.00933400  0.54919200  1
  C  261  1  0.21053900  0.00756000  0.51563000  1
  C  269  1  0.20389000  0.99409300  0.44771300  1
  C  271  1  0.31992700  0.99511200  0.58391900  1
  C  273  1  0.97840500  0.48261600  0.03616000  1
  C  274  1  0.02812700  0.48418500  0.05251500  1
  C  275  1  0.05897500  0.51745200  0.05137000  1
  C  276  1  0.04017500  0.55071800  0.03316600  1
  C  277  1  0.99022600  0.54914300  0.01582900  1
  C  279  1  0.96049600  0.51559300  0.01766100  1
  C  287  1  0.95385700  0.44768500  0.03110300  1
  C  289  1  0.06996000  0.58383700  0.02989100  1
  C  291  1  0.47842600  0.54255900  0.98903800  1
  C  292  1  0.52816200  0.54104400  0.97269400  1
  C  293  1  0.55901700  0.50778300  0.97381200  1
  C  294  1  0.54019500  0.47447200  0.99192600  1
  C  295  1  0.49022800  0.47600900  0.00924000  1
  C  297  1  0.46047500  0.50954500  0.00743600  1
  C  305  1  0.45387500  0.57749300  0.99408200  1
  C  307  1  0.56995900  0.44132400  0.99508100  1
  N  38  1  0.15504200  0.00074900  0.44398500  1
  N  39  1  0.08699500  0.91696500  0.24824200  1
  N  40  1  0.86816900  0.02055600  0.44111400  1
  N  41  1  0.95211800  0.10646000  0.24217100  1
  N  79  1  0.65501900  0.02436700  0.58124100  1
  N  80  1  0.58705800  0.10806500  0.77699200  1
  N  81  1  0.36811700  0.00467200  0.58406100  1
  N  82  1  0.45203600  0.91869500  0.78304300  1
  N  120  1  0.40502600  0.58125800  0.00069500  1
  N  121  1  0.33702400  0.77703400  0.91704100  1
  N  122  1  0.11820600  0.58405500  0.02048800  1
  N  123  1  0.20208500  0.78302000  0.10650400  1
  N  161  1  0.90500800  0.44395100  0.02446100  1
  N  162  1  0.83700900  0.24829300  0.10818400  1
  N  163  1  0.61814900  0.44114000  0.00462700  1
  N  164  1  0.70210600  0.24216200  0.91864400  1
  N  173  1  0.86170700  0.25594700  0.18658500  1
  N  174  1  0.86060100  0.13846900  0.11135800  1
  N  191  1  0.36123900  0.76931800  0.83863000  1
  N  192  1  0.36073100  0.88677100  0.91392400  1
  N  209  1  0.11150900  0.83860200  0.25593500  1
  N  210  1  0.11054900  0.91381000  0.13844700  1
  N  227  1  0.61139400  0.18650000  0.76928400  1
  N  228  1  0.61077000  0.11127800  0.88675700  1
  N  245  1  0.85918200  0.06717700  0.50797900  1
  N  246  1  0.71698000  0.99429200  0.44668900  1
  N  263  1  0.35909500  0.95781700  0.51736400  1
  N  264  1  0.21710200  0.03110300  0.57843800  1
  N  281  1  0.10910300  0.51734100  0.06731500  1
  N  282  1  0.96709300  0.57836100  0.99401100  1
  N  299  1  0.60917300  0.50793100  0.95790800  1
  N  300  1  0.46703000  0.44671200  0.03091400  1
  O  175  1  0.83043900  0.26075800  0.21341200  1
  O  176  1  0.89957600  0.12473000  0.09526500  1
  O  177  1  0.90083300  0.27618900  0.19234400  1
  O  178  1  0.82913200  0.11221400  0.11809700  1
  O  193  1  0.32993700  0.76457400  0.81181300  1
  O  194  1  0.39979400  0.90041700  0.92998100  1
  O  195  1  0.40028700  0.74900500  0.83284000  1
  O  196  1  0.32935300  0.91309500  0.90722800  1
  O  211  1  0.08023600  0.81177600  0.26072500  1
  O  212  1  0.14953400  0.92990100  0.12472500  1
  O  213  1  0.15060700  0.83284000  0.27620400  1
  O  214  1  0.07910100  0.90705800  0.11218200  1
  O  229  1  0.58008000  0.21330700  0.76452300  1
  O  230  1  0.64980600  0.09522100  0.90043700  1
  O  231  1  0.65045000  0.19229100  0.74897900  1
  O  232  1  0.57935900  0.11799000  0.91305500  1
  O  247  1  0.88780500  0.05099300  0.53179800  1
  O  248  1  0.74323200  0.96579200  0.43745500  1
  O  249  1  0.85809100  0.10207200  0.51512500  1
  O  250  1  0.70611600  0.01368800  0.41791400  1
  O  265  1  0.38779900  0.97388600  0.49352200  1
  O  266  1  0.24343500  0.05957500  0.58763200  1
  O  267  1  0.35787500  0.92290800  0.51030000  1
  O  268  1  0.20615100  0.01177600  0.60724200  1
  O  283  1  0.13778600  0.49348800  0.05123700  1
  O  284  1  0.99342600  0.58750200  0.96551900  1
  O  285  1  0.10792200  0.51028500  0.10222700  1
  O  286  1  0.95616600  0.60720200  0.01329100  1
  O  301  1  0.63782300  0.53175600  0.97405900  1
  O  302  1  0.49329300  0.43746000  0.05940500  1
  O  303  1  0.60804800  0.51505200  0.92301000  1
  O  304  1  0.45613000  0.41794500  0.01151500  1
