# generated using pymatgen
data_CdH12C18SN3O4
_symmetry_space_group_name_H-M   'P 1'
_cell_length_a   10.07400000
_cell_length_b   13.06962000
_cell_length_c   24.39417000
_cell_angle_alpha   85.36512000
_cell_angle_beta   84.88337000
_cell_angle_gamma   80.97453000
_symmetry_Int_Tables_number   1
_chemical_formula_structural   CdH12C18SN3O4
_chemical_formula_sum   'Cd6 H72 C108 S6 N18 O24'
_cell_volume   3152.11523076
_cell_formula_units_Z   6
loop_
 _symmetry_equiv_pos_site_id
 _symmetry_equiv_pos_as_xyz
  1  'x, y, z'
loop_
 _atom_site_type_symbol
 _atom_site_label
 _atom_site_symmetry_multiplicity
 _atom_site_fract_x
 _atom_site_fract_y
 _atom_site_fract_z
 _atom_site_occupancy
  Cd  Cd1  1  0.35803000  0.54376000  0.58390000  1.0
  Cd  Cd2  1  0.06514000  0.41106000  0.57714000  1.0
  Cd  Cd3  1  0.84975000  0.67797000  0.60507000  1.0
  Cd  Cd4  1  0.64199000  0.45624000  0.41610000  1.0
  Cd  Cd5  1  0.93487000  0.58894000  0.42286000  1.0
  Cd  Cd6  1  0.15027000  0.32203000  0.39493000  1.0
  H  H1  1  0.12740000  0.04536000  0.79963000  1.0
  H  H2  1  0.19762000  0.05675000  0.89346000  1.0
  H  H3  1  0.59905000  0.90983000  0.84270000  1.0
  H  H4  1  0.52895000  0.90344000  0.74765000  1.0
  H  H5  1  0.43379000  0.76618000  0.56683000  1.0
  H  H6  1  0.39153000  0.93817000  0.60772000  1.0
  H  H7  1  0.25544000  0.78201000  0.76056000  1.0
  H  H8  1  0.29623000  0.61787000  0.71234000  1.0
  H  H9  1  0.20471000  0.32584000  0.68690000  1.0
  H  H10  1  0.29621000  0.16514000  0.74028000  1.0
  H  H11  1  0.15186000  0.99347000  0.61865000  1.0
  H  H12  1  0.07449000  0.16241000  0.56916000  1.0
  H  H13  1  0.86406000  0.09780000  0.87241000  1.0
  H  H14  1  0.75507000  0.04227000  0.79437000  1.0
  H  H15  1  0.86301000  0.30758000  0.69291000  1.0
  H  H16  1  0.96866000  0.36407000  0.76958000  1.0
  H  H17  1  0.42639000  0.37787000  0.98244000  1.0
  H  H18  1  0.54027000  0.42825000  0.06061000  1.0
  H  H19  1  0.15655000  0.48541000  0.15505000  1.0
  H  H20  1  0.04238000  0.43761000  0.07685000  1.0
  H  H21  1  0.38126000  0.41012000  0.69676000  1.0
  H  H22  1  0.52125000  0.25638000  0.74270000  1.0
  H  H23  1  0.75896000  0.21992000  0.58696000  1.0
  H  H24  1  0.61253000  0.37341000  0.54818000  1.0
  H  H25  1  0.64683000  0.89091000  0.58766000  1.0
  H  H26  1  0.59063000  0.06727000  0.62352000  1.0
  H  H27  1  0.94957000  0.99353000  0.71325000  1.0
  H  H28  1  0.98696000  0.81942000  0.67452000  1.0
  H  H29  1  0.27749000  0.22244000  0.27719000  1.0
  H  H30  1  0.35824000  0.28795000  0.18348000  1.0
  H  H31  1  0.39441000  0.57339000  0.25429000  1.0
  H  H32  1  0.31875000  0.49357000  0.34552000  1.0
  H  H33  1  0.48721000  0.81788000  0.10647000  1.0
  H  H34  1  0.35821000  0.66989000  0.10458000  1.0
  H  H35  1  0.65769000  0.48570000  0.20264000  1.0
  H  H36  1  0.77330000  0.63928000  0.20027000  1.0
  H  H37  1  0.87261000  0.95464000  0.20037000  1.0
  H  H38  1  0.80239000  0.94325000  0.10654000  1.0
  H  H39  1  0.40096000  0.09017000  0.15730000  1.0
  H  H40  1  0.47106000  0.09656000  0.25235000  1.0
  H  H41  1  0.56622000  0.23382000  0.43317000  1.0
  H  H42  1  0.60848000  0.06183000  0.39228000  1.0
  H  H43  1  0.74457000  0.21799000  0.23944000  1.0
  H  H44  1  0.70379000  0.38214000  0.28766000  1.0
  H  H45  1  0.79531000  0.67416000  0.31310000  1.0
  H  H46  1  0.70380000  0.83486000  0.25972000  1.0
  H  H47  1  0.84815000  0.00653000  0.38135000  1.0
  H  H48  1  0.92552000  0.83759000  0.43084000  1.0
  H  H49  1  0.13595000  0.90220000  0.12759000  1.0
  H  H50  1  0.24494000  0.95773000  0.20564000  1.0
  H  H51  1  0.13701000  0.69242000  0.30709000  1.0
  H  H52  1  0.03135000  0.63593000  0.23042000  1.0
  H  H53  1  0.57362000  0.62213000  0.01756000  1.0
  H  H54  1  0.45974000  0.57175000  0.93939000  1.0
  H  H55  1  0.84347000  0.51459000  0.84495000  1.0
  H  H56  1  0.95764000  0.56239000  0.92315000  1.0
  H  H57  1  0.61875000  0.58988000  0.30324000  1.0
  H  H58  1  0.47877000  0.74362000  0.25730000  1.0
  H  H59  1  0.24105000  0.78008000  0.41304000  1.0
  H  H60  1  0.38749000  0.62659000  0.45182000  1.0
  H  H61  1  0.35319000  0.10909000  0.41234000  1.0
  H  H62  1  0.40938000  0.93273000  0.37648000  1.0
  H  H63  1  0.05044000  0.00647000  0.28675000  1.0
  H  H64  1  0.01306000  0.18058000  0.32548000  1.0
  H  H65  1  0.72252000  0.77756000  0.72281000  1.0
  H  H66  1  0.64178000  0.71205000  0.81653000  1.0
  H  H67  1  0.60561000  0.42662000  0.74571000  1.0
  H  H68  1  0.68127000  0.50643000  0.65448000  1.0
  H  H69  1  0.51280000  0.18212000  0.89353000  1.0
  H  H70  1  0.64180000  0.33011000  0.89542000  1.0
  H  H71  1  0.34232000  0.51430000  0.79736000  1.0
  H  H72  1  0.22672000  0.36072000  0.79973000  1.0
  C  C1  1  0.44373000  0.98943000  0.92839000  1.0
  C  C2  1  0.48017000  0.99621000  0.97465000  1.0
  C  C3  1  0.32379000  0.97274000  0.76799000  1.0
  C  C4  1  0.23020000  0.01505000  0.80928000  1.0
  C  C5  1  0.26941000  0.02120000  0.86199000  1.0
  C  C6  1  0.40296000  0.98266000  0.87507000  1.0
  C  C7  1  0.49585000  0.93888000  0.83315000  1.0
  C  C8  1  0.45683000  0.93484000  0.78021000  1.0
  C  C9  1  0.39276000  0.77358000  0.60937000  1.0
  C  C10  1  0.36976000  0.86905000  0.63249000  1.0
  C  C11  1  0.31694000  0.87478000  0.68753000  1.0
  C  C12  1  0.29481000  0.78201000  0.71760000  1.0
  C  C13  1  0.31935000  0.69005000  0.69096000  1.0
  C  C14  1  0.19708000  0.25023000  0.67301000  1.0
  C  C15  1  0.24797000  0.15988000  0.70273000  1.0
  C  C16  1  0.23566000  0.06344000  0.68362000  1.0
  C  C17  1  0.16897000  0.06471000  0.63506000  1.0
  C  C18  1  0.12413000  0.15919000  0.60730000  1.0
  C  C19  1  0.98538000  0.26772000  0.87060000  1.0
  C  C20  1  0.04119000  0.30024000  0.90699000  1.0
  C  C21  1  0.10390000  0.33589000  0.94637000  1.0
  C  C22  1  0.16211000  0.36852000  0.98202000  1.0
  C  C23  1  0.92422000  0.23446000  0.82675000  1.0
  C  C24  1  0.86432000  0.14274000  0.83289000  1.0
  C  C25  1  0.80398000  0.11131000  0.78928000  1.0
  C  C26  1  0.80319000  0.17044000  0.73863000  1.0
  C  C27  1  0.86253000  0.26129000  0.73207000  1.0
  C  C28  1  0.92229000  0.29348000  0.77552000  1.0
  C  C29  1  0.22684000  0.40237000  0.02467000  1.0
  C  C30  1  0.36785000  0.40241000  0.02006000  1.0
  C  C31  1  0.43145000  0.43039000  0.06371000  1.0
  C  C32  1  0.35576000  0.45862000  0.11272000  1.0
  C  C33  1  0.21514000  0.46196000  0.11722000  1.0
  C  C34  1  0.15129000  0.43432000  0.07370000  1.0
  C  C35  1  0.46610000  0.36538000  0.67434000  1.0
  C  C36  1  0.54282000  0.27977000  0.69940000  1.0
  C  C37  1  0.64984000  0.22552000  0.66786000  1.0
  C  C38  1  0.67431000  0.25757000  0.61246000  1.0
  C  C39  1  0.59348000  0.34500000  0.59075000  1.0
  C  C40  1  0.70998000  0.91710000  0.61605000  1.0
  C  C41  1  0.67944000  0.01512000  0.63600000  1.0
  C  C42  1  0.76480000  0.04557000  0.67256000  1.0
  C  C43  1  0.87855000  0.97366000  0.68638000  1.0
  C  C44  1  0.90058000  0.87719000  0.66455000  1.0
  C  C45  1  0.30718000  0.29928000  0.27061000  1.0
  C  C46  1  0.35151000  0.33595000  0.21827000  1.0
  C  C47  1  0.38452000  0.43709000  0.21109000  1.0
  C  C48  1  0.37409000  0.49411000  0.25785000  1.0
  C  C49  1  0.33055000  0.45065000  0.30864000  1.0
  C  C50  1  0.52259000  0.74281000  0.12733000  1.0
  C  C51  1  0.45060000  0.66009000  0.12568000  1.0
  C  C52  1  0.49630000  0.56565000  0.15439000  1.0
  C  C53  1  0.61588000  0.55790000  0.18091000  1.0
  C  C54  1  0.68029000  0.64506000  0.17971000  1.0
  C  C55  1  0.55628000  0.01057000  0.07160000  1.0
  C  C56  1  0.51985000  0.00379000  0.02535000  1.0
  C  C57  1  0.67622000  0.02726000  0.23201000  1.0
  C  C58  1  0.76981000  0.98495000  0.19072000  1.0
  C  C59  1  0.73060000  0.97880000  0.13801000  1.0
  C  C60  1  0.59705000  0.01734000  0.12493000  1.0
  C  C61  1  0.50416000  0.06112000  0.16685000  1.0
  C  C62  1  0.54318000  0.06516000  0.21979000  1.0
  C  C63  1  0.60725000  0.22642000  0.39064000  1.0
  C  C64  1  0.63025000  0.13095000  0.36752000  1.0
  C  C65  1  0.68307000  0.12522000  0.31247000  1.0
  C  C66  1  0.70521000  0.21799000  0.28240000  1.0
  C  C67  1  0.68066000  0.30995000  0.30904000  1.0
  C  C68  1  0.80293000  0.74977000  0.32699000  1.0
  C  C69  1  0.75205000  0.84013000  0.29727000  1.0
  C  C70  1  0.76436000  0.93656000  0.31638000  1.0
  C  C71  1  0.83105000  0.93529000  0.36494000  1.0
  C  C72  1  0.87589000  0.84082000  0.39270000  1.0
  C  C73  1  0.01463000  0.73228000  0.12940000  1.0
  C  C74  1  0.95882000  0.69976000  0.09302000  1.0
  C  C75  1  0.89611000  0.66411000  0.05363000  1.0
  C  C76  1  0.83790000  0.63148000  0.01798000  1.0
  C  C77  1  0.07579000  0.76554000  0.17325000  1.0
  C  C78  1  0.13569000  0.85726000  0.16711000  1.0
  C  C79  1  0.19603000  0.88869000  0.21072000  1.0
  C  C80  1  0.19683000  0.82956000  0.26137000  1.0
  C  C81  1  0.13748000  0.73871000  0.26793000  1.0
  C  C82  1  0.07772000  0.70652000  0.22448000  1.0
  C  C83  1  0.77318000  0.59763000  0.97534000  1.0
  C  C84  1  0.63217000  0.59759000  0.97994000  1.0
  C  C85  1  0.56857000  0.56961000  0.93629000  1.0
  C  C86  1  0.64426000  0.54138000  0.88728000  1.0
  C  C87  1  0.78488000  0.53804000  0.88278000  1.0
  C  C88  1  0.84872000  0.56568000  0.92630000  1.0
  C  C89  1  0.53392000  0.63462000  0.32566000  1.0
  C  C90  1  0.45720000  0.72024000  0.30060000  1.0
  C  C91  1  0.35017000  0.77448000  0.33214000  1.0
  C  C92  1  0.32570000  0.74244000  0.38754000  1.0
  C  C93  1  0.40653000  0.65500000  0.40925000  1.0
  C  C94  1  0.29003000  0.08290000  0.38395000  1.0
  C  C95  1  0.32057000  0.98488000  0.36400000  1.0
  C  C96  1  0.23522000  0.95443000  0.32744000  1.0
  C  C97  1  0.12147000  0.02634000  0.31362000  1.0
  C  C98  1  0.09944000  0.12281000  0.33545000  1.0
  C  C99  1  0.69283000  0.70072000  0.72939000  1.0
  C  C100  1  0.64851000  0.66405000  0.78173000  1.0
  C  C101  1  0.61550000  0.56291000  0.78891000  1.0
  C  C102  1  0.62592000  0.50589000  0.74215000  1.0
  C  C103  1  0.66946000  0.54935000  0.69137000  1.0
  C  C104  1  0.47742000  0.25719000  0.87267000  1.0
  C  C105  1  0.54941000  0.33991000  0.87432000  1.0
  C  C106  1  0.50372000  0.43435000  0.84561000  1.0
  C  C107  1  0.38413000  0.44210000  0.81909000  1.0
  C  C108  1  0.31973000  0.35494000  0.82029000  1.0
  S  S1  1  0.06304000  0.52878000  0.68250000  1.0
  S  S2  1  0.08693000  0.67743000  0.51709000  1.0
  S  S3  1  0.33299000  0.38333000  0.47656000  1.0
  S  S4  1  0.93698000  0.47122000  0.31750000  1.0
  S  S5  1  0.91308000  0.32257000  0.48291000  1.0
  S  S6  1  0.66702000  0.61667000  0.52344000  1.0
  N  N1  1  0.28655000  0.97036000  0.71284000  1.0
  N  N2  1  0.36676000  0.68505000  0.63771000  1.0
  N  N3  1  0.13780000  0.25152000  0.62555000  1.0
  N  N4  1  0.73678000  0.14265000  0.69393000  1.0
  N  N5  1  0.49128000  0.39836000  0.62117000  1.0
  N  N6  1  0.81728000  0.84795000  0.63035000  1.0
  N  N7  1  0.42208000  0.48109000  0.15865000  1.0
  N  N8  1  0.29626000  0.35453000  0.31560000  1.0
  N  N9  1  0.63446000  0.73786000  0.15439000  1.0
  N  N10  1  0.71346000  0.02964000  0.28716000  1.0
  N  N11  1  0.63325000  0.31495000  0.36229000  1.0
  N  N12  1  0.86221000  0.74848000  0.37445000  1.0
  N  N13  1  0.26324000  0.85735000  0.30607000  1.0
  N  N14  1  0.50873000  0.60164000  0.37883000  1.0
  N  N15  1  0.18274000  0.15205000  0.36965000  1.0
  N  N16  1  0.57793000  0.51892000  0.84135000  1.0
  N  N17  1  0.70376000  0.64547000  0.68440000  1.0
  N  N18  1  0.36556000  0.26215000  0.84561000  1.0
  O  O1  1  0.19650000  0.49035000  0.64975000  1.0
  O  O2  1  0.96018000  0.47035000  0.66127000  1.0
  O  O3  1  0.02226000  0.64328000  0.66944000  1.0
  O  O4  1  0.07917000  0.50406000  0.74196000  1.0
  O  O5  1  0.23215000  0.66610000  0.52816000  1.0
  O  O6  1  0.01920000  0.58623000  0.54467000  1.0
  O  O7  1  0.00825000  0.77353000  0.53849000  1.0
  O  O8  1  0.08004000  0.67672000  0.45542000  1.0
  O  O9  1  0.27304000  0.41890000  0.53337000  1.0
  O  O10  1  0.26563000  0.45149000  0.43146000  1.0
  O  O11  1  0.31246000  0.27348000  0.47181000  1.0
  O  O12  1  0.47946000  0.39318000  0.47520000  1.0
  O  O13  1  0.80351000  0.50965000  0.35025000  1.0
  O  O14  1  0.03983000  0.52965000  0.33873000  1.0
  O  O15  1  0.97776000  0.35672000  0.33056000  1.0
  O  O16  1  0.92084000  0.49594000  0.25804000  1.0
  O  O17  1  0.76786000  0.33390000  0.47184000  1.0
  O  O18  1  0.98081000  0.41377000  0.45533000  1.0
  O  O19  1  0.99177000  0.22647000  0.46152000  1.0
  O  O20  1  0.91997000  0.32328000  0.54458000  1.0
  O  O21  1  0.72697000  0.58110000  0.46663000  1.0
  O  O22  1  0.73438000  0.54851000  0.56854000  1.0
  O  O23  1  0.68755000  0.72652000  0.52819000  1.0
  O  O24  1  0.52055000  0.60682000  0.52480000  1.0
