# generated using pymatgen
data_ZnH3C7NO4
_symmetry_space_group_name_H-M   'P 1'
_cell_length_a   12.50761000
_cell_length_b   14.06776000
_cell_length_c   14.15884000
_cell_angle_alpha   104.37178000
_cell_angle_beta   89.95188000
_cell_angle_gamma   89.80267000
_symmetry_Int_Tables_number   1
_chemical_formula_structural   ZnH3C7NO4
_chemical_formula_sum   'Zn8 H24 C56 N8 O32'
_cell_volume   2413.32323895
_cell_formula_units_Z   8
loop_
 _symmetry_equiv_pos_site_id
 _symmetry_equiv_pos_as_xyz
  1  'x, y, z'
loop_
 _atom_site_type_symbol
 _atom_site_label
 _atom_site_symmetry_multiplicity
 _atom_site_fract_x
 _atom_site_fract_y
 _atom_site_fract_z
 _atom_site_occupancy
  Zn  Zn0  1  0.48863000  0.83836000  0.15650000  1
  Zn  Zn1  1  0.98664000  0.66004000  0.34113000  1
  Zn  Zn2  1  0.22387000  0.20719000  0.56479000  1
  Zn  Zn3  1  0.27831000  0.70717000  0.06518000  1
  Zn  Zn4  1  0.72169000  0.29283000  0.93482000  1
  Zn  Zn5  1  0.77613000  0.79281000  0.43521000  1
  Zn  Zn6  1  0.01336000  0.33996000  0.65887000  1
  Zn  Zn7  1  0.51138000  0.16164000  0.84350000  1
  H  H8  1  0.05477000  0.87808000  0.24774000  1
  H  H9  1  0.43535000  0.50414000  0.13417000  1
  H  H10  1  0.32733000  0.03267000  0.39380000  1
  H  H11  1  0.17429000  0.53468000  0.89656000  1
  H  H12  1  0.81326000  0.14450000  0.17511000  1
  H  H13  1  0.55539000  0.62241000  0.25279000  1
  H  H14  1  0.68896000  0.53685000  0.79382000  1
  H  H15  1  0.05675000  0.53053000  0.47875000  1
  H  H16  1  0.94524000  0.12192000  0.75226000  1
  H  H17  1  0.31104000  0.46315000  0.20618000  1
  H  H18  1  0.44461000  0.37759000  0.74721000  1
  H  H19  1  0.80993000  0.03632000  0.29404000  1
  H  H20  1  0.19008000  0.96368000  0.70596000  1
  H  H21  1  0.18675000  0.85550000  0.82489000  1
  H  H22  1  0.93667000  0.99776000  0.36790000  1
  H  H23  1  0.94325000  0.46947000  0.52125000  1
  H  H24  1  0.68506000  0.64503000  0.67472000  1
  H  H25  1  0.06333000  0.00224000  0.63210000  1
  H  H26  1  0.56465000  0.49587000  0.86583000  1
  H  H27  1  0.55686000  0.96912000  0.02133000  1
  H  H28  1  0.82571000  0.46532000  0.10344000  1
  H  H29  1  0.31494000  0.35497000  0.32528000  1
  H  H30  1  0.44315000  0.03088000  0.97866000  1
  H  H31  1  0.67267000  0.96733000  0.60620000  1
  C  C32  1  0.52195000  0.49661000  0.13211000  1
  C  C33  1  0.41242000  0.43818000  0.80345000  1
  C  C34  1  0.17456000  0.36804000  0.48033000  1
  C  C35  1  0.26022000  0.52519000  0.88670000  1
  C  C36  1  0.97676000  0.99577000  0.63118000  1
  C  C37  1  0.92871000  0.92110000  0.56066000  1
  C  C38  1  0.24126000  0.02402000  0.38499000  1
  C  C39  1  0.31597000  0.93351000  0.91025000  1
  C  C40  1  0.24432000  0.97601000  0.76772000  1
  C  C41  1  0.38638000  0.01216000  0.91931000  1
  C  C42  1  0.56905000  0.42142000  0.06107000  1
  C  C43  1  0.25660000  0.47535000  0.26790000  1
  C  C44  1  0.25837000  0.41550000  0.33333333  1
  C  C45  1  0.67255000  0.13199000  0.02015000  1
  C  C46  1  0.82544000  0.63196000  0.51967000  1
  C  C47  1  0.30137000  0.45008000  0.81160000  1
  C  C48  1  0.75874000  0.97598000  0.61501000  1
  C  C49  1  0.77194000  0.61604000  0.25929000  1
  C  C50  1  0.68404000  0.06649000  0.08975000  1
  C  C51  1  0.75713000  0.08396000  0.16692000  1
  C  C52  1  0.58758000  0.56182000  0.19655000  1
  C  C53  1  0.49795000  0.65430000  0.00785000  1
  C  C54  1  0.72936000  0.11793000  0.76190000  1
  C  C55  1  0.22806000  0.38397000  0.74071000  1
  C  C56  1  0.33250000  0.11934000  0.71298000  1
  C  C57  1  0.74163000  0.58450000  0.66666667  1
  C  C58  1  0.31990000  0.05089000  0.77993000  1
  C  C59  1  0.80102000  0.05073000  0.68965000  1
  C  C60  1  0.43095000  0.57859000  0.93893000  1
  C  C61  1  0.68011000  0.94911000  0.22007000  1
  C  C62  1  0.00432000  0.15500000  0.50847000  1
  C  C63  1  0.18502000  0.43313000  0.41043000  1
  C  C64  1  0.83215000  0.38196000  0.78730000  1
  C  C65  1  0.27064000  0.88207000  0.23810000  1
  C  C66  1  0.18013000  0.54995000  0.27992000  1
  C  C67  1  0.19898000  0.94927000  0.31035000  1
  C  C68  1  0.08787000  0.93835000  0.30355000  1
  C  C69  1  0.69863000  0.54992000  0.18840000  1
  C  C70  1  0.11365000  0.51157000  0.41934000  1
  C  C71  1  0.91213000  0.06165000  0.69645000  1
  C  C72  1  0.02324000  0.00424000  0.36882000  1
  C  C73  1  0.75568000  0.02399000  0.23227000  1
  C  C74  1  0.16785000  0.61805000  0.21270000  1
  C  C75  1  0.50205000  0.34570000  0.99215000  1
  C  C76  1  0.99568000  0.84500000  0.49153000  1
  C  C77  1  0.88635000  0.48844000  0.58066000  1
  C  C78  1  0.47805000  0.50339000  0.86789000  1
  C  C79  1  0.81498000  0.56687000  0.58957000  1
  C  C80  1  0.66750000  0.88066000  0.28702000  1
  C  C81  1  0.24287000  0.91604000  0.83308000  1
  C  C82  1  0.61362000  0.98784000  0.08068000  1
  C  C83  1  0.81987000  0.45006000  0.72008000  1
  C  C84  1  0.74340000  0.52465000  0.73210000  1
  C  C85  1  0.07129000  0.07890000  0.43934000  1
  C  C86  1  0.73978000  0.47481000  0.11329000  1
  C  C87  1  0.32745000  0.86801000  0.97985000  1
  N  N88  1  0.32351000  0.58778000  0.94882000  1
  N  N89  1  0.82127000  0.91269000  0.55200000  1
  N  N90  1  0.10951000  0.56657000  0.35461000  1
  N  N91  1  0.61001000  0.93255000  0.14510000  1
  N  N92  1  0.89049000  0.43344000  0.64539000  1
  N  N93  1  0.38999000  0.06745000  0.85490000  1
  N  N94  1  0.67649000  0.41222000  0.05118000  1
  N  N95  1  0.17873000  0.08731000  0.44800000  1
  O  O96  1  0.73527000  0.89094000  0.35610000  1
  O  O97  1  0.40148000  0.89066000  0.04247000  1
  O  O98  1  0.91036000  0.32298000  0.77178000  1
  O  O99  1  0.73583000  0.20506000  0.03302000  1
  O  O100  1  0.72564000  0.67655000  0.32853000  1
  O  O101  1  0.77705000  0.17708000  0.83086000  1
  O  O102  1  0.10065000  0.39092000  0.54332000  1
  O  O103  1  0.26473000  0.10906000  0.64390000  1
  O  O104  1  0.26418000  0.79494000  0.96698000  1
  O  O105  1  0.59269000  0.66633000  0.99078000  1
  O  O106  1  0.59170000  0.81966000  0.26881000  1
  O  O107  1  0.59852000  0.10934000  0.95753000  1
  O  O108  1  0.94223000  0.79506000  0.41427000  1
  O  O109  1  0.23855000  0.29500000  0.46740000  1
  O  O110  1  0.87233000  0.60443000  0.24341000  1
  O  O111  1  0.40731000  0.33368000  0.00922000  1
  O  O112  1  0.08964000  0.67702000  0.22822000  1
  O  O113  1  0.55580000  0.29565000  0.91484000  1
  O  O114  1  0.09033000  0.83312000  0.50901000  1
  O  O115  1  0.27436000  0.32345000  0.67147000  1
  O  O116  1  0.22295000  0.82293000  0.16914000  1
  O  O117  1  0.05777000  0.20494000  0.58573000  1
  O  O118  1  0.37120000  0.89098000  0.25278000  1
  O  O119  1  0.90967000  0.16688000  0.49099000  1
  O  O120  1  0.62880000  0.10902000  0.74722000  1
  O  O121  1  0.89935000  0.60909000  0.45668000  1
  O  O122  1  0.44420000  0.70435000  0.08516000  1
  O  O123  1  0.40830000  0.18035000  0.73119000  1
  O  O124  1  0.23853000  0.60939000  0.14610000  1
  O  O125  1  0.12767000  0.39557000  0.75659000  1
  O  O126  1  0.76148000  0.39062000  0.85390000  1
  O  O127  1  0.76146000  0.70500000  0.53260000  1
