# generated using pymatgen
data_H24C39N8
_symmetry_space_group_name_H-M   'P 1'
_cell_length_a   17.81020000
_cell_length_b   17.81015000
_cell_length_c   70.84030000
_cell_angle_alpha   89.99860000
_cell_angle_beta   89.99790000
_cell_angle_gamma   90.00000000
_symmetry_Int_Tables_number   1
_chemical_formula_structural   H24C39N8
_chemical_formula_sum   'H192 C312 N64'
_cell_volume   22470.70844616
_cell_formula_units_Z   8
loop_
 _symmetry_equiv_pos_site_id
 _symmetry_equiv_pos_as_xyz
  1  'x, y, z'
loop_
 _atom_site_type_symbol
 _atom_site_label
 _atom_site_symmetry_multiplicity
 _atom_site_fract_x
 _atom_site_fract_y
 _atom_site_fract_z
 _atom_site_occupancy
  C  1  1  0.08799900  0.09657500  0.13613800  1
  C  2  1  0.16759800  0.09473700  0.13618800  1
  C  3  1  0.16786900  0.95252000  0.13633600  1
  C  4  1  0.08828500  0.95043900  0.13634500  1
  C  5  1  0.05295000  0.87815500  0.13633700  1
  C  6  1  0.09395000  0.80943200  0.13632000  1
  C  7  1  0.17323100  0.81517900  0.13633700  1
  C  8  1  0.20937300  0.88503000  0.13635100  1
  C  9  1  0.20887300  0.16235000  0.13616300  1
  C  10  1  0.17249100  0.23206400  0.13612000  1
  C  11  1  0.09318500  0.23755600  0.13608600  1
  C  12  1  0.05238500  0.16870700  0.13607800  1
  C  13  1  0.99898800  0.02276500  0.11786500  1
  C  14  1  0.91941500  0.02106900  0.11818400  1
  C  15  1  0.91891800  0.02144700  0.15391800  1
  C  16  1  0.99849600  0.02365900  0.15447700  1
  C  17  1  0.87732800  0.02128900  0.17087000  1
  C  18  1  0.91337400  0.02413900  0.18842200  1
  C  19  1  0.99257300  0.02670400  0.18981600  1
  C  20  1  0.03383400  0.02628300  0.17261500  1
  C  21  1  0.03501400  0.02322000  0.09983200  1
  C  22  1  0.99462200  0.02236400  0.08249200  1
  C  23  1  0.91538900  0.02088700  0.08362100  1
  C  24  1  0.87856200  0.02018300  0.10110300  1
  C  37  1  0.04349600  0.02341900  0.13621300  1
  C  38  1  0.87602200  0.01982100  0.13600700  1
  C  41  1  0.21084900  0.02370600  0.13627200  1
  C  44  1  0.02726500  0.03172200  0.20760500  1
  C  45  1  0.05770200  0.30847000  0.13607900  1
  C  46  1  0.03142900  0.02278500  0.06494200  1
  C  50  1  0.05863300  0.73843100  0.13626800  1
  C  52  1  0.94839900  0.08912000  0.63641300  1
  C  53  1  0.95023500  0.16870900  0.63643000  1
  C  54  1  0.09247500  0.16898500  0.63657800  1
  C  55  1  0.09455000  0.08941100  0.63662200  1
  C  56  1  0.16681400  0.05403200  0.63660900  1
  C  57  1  0.23555000  0.09499900  0.63655500  1
  C  58  1  0.22982700  0.17428500  0.63654600  1
  C  59  1  0.15998500  0.21045500  0.63656300  1
  C  60  1  0.88259900  0.20995100  0.63637500  1
  C  61  1  0.81289800  0.17353900  0.63632800  1
  C  62  1  0.80742900  0.09422900  0.63632100  1
  C  63  1  0.87628800  0.05346500  0.63634800  1
  C  64  1  0.02222700  0.00023200  0.61815200  1
  C  65  1  0.02394300  0.92065700  0.61852100  1
  C  66  1  0.02354900  0.92014700  0.65423500  1
  C  67  1  0.02131500  0.99972300  0.65478200  1
  C  68  1  0.02369300  0.87854100  0.67118300  1
  C  69  1  0.02080800  0.91458800  0.68873100  1
  C  70  1  0.01823000  0.99378700  0.69012000  1
  C  71  1  0.01866800  0.03506100  0.67291900  1
  C  72  1  0.02177500  0.03622700  0.60009900  1
  C  73  1  0.02265100  0.99575100  0.58277800  1
  C  74  1  0.02415000  0.91644300  0.58399600  1
  C  75  1  0.02485300  0.87969000  0.60147400  1
  C  88  1  0.02156500  0.04466900  0.63650500  1
  C  89  1  0.02520400  0.87724700  0.63633700  1
  C  92  1  0.02127600  0.21195900  0.63650200  1
  C  95  1  0.01317700  0.02843400  0.70791300  1
  C  96  1  0.73653100  0.05871500  0.63631100  1
  C  97  1  0.02223500  0.03207900  0.56512900  1
  C  101  1  0.30653600  0.05964800  0.63650200  1
  C  103  1  0.95618100  0.09685900  0.88631400  1
  C  104  1  0.87658900  0.09502400  0.88630300  1
  C  105  1  0.87632200  0.95279100  0.88614400  1
  C  106  1  0.95590300  0.95072500  0.88609700  1
  C  107  1  0.99127600  0.87845700  0.88607600  1
  C  108  1  0.95030500  0.80972100  0.88610700  1
  C  109  1  0.87101900  0.81544300  0.88612700  1
  C  110  1  0.83484800  0.88528500  0.88613900  1
  C  111  1  0.83533700  0.16265400  0.88634800  1
  C  112  1  0.87173800  0.23236100  0.88637100  1
  C  113  1  0.95104900  0.23783600  0.88636100  1
  C  114  1  0.99182300  0.16897700  0.88635100  1
  C  115  1  0.04531400  0.02303100  0.90453300  1
  C  116  1  0.12488900  0.02140600  0.90408900  1
  C  117  1  0.12500500  0.02188300  0.86838400  1
  C  118  1  0.04542200  0.02398200  0.86789000  1
  C  119  1  0.16648600  0.02180700  0.85141800  1
  C  120  1  0.13030000  0.02459200  0.83389100  1
  C  121  1  0.05108600  0.02702900  0.83254400  1
  C  122  1  0.00994500  0.02655100  0.84976700  1
  C  123  1  0.00965300  0.02339400  0.92263400  1
  C  124  1  0.05049200  0.02248900  0.93991200  1
  C  125  1  0.12976100  0.02106600  0.93859900  1
  C  126  1  0.16617000  0.02047800  0.92108500  1
  C  139  1  0.00065500  0.02370600  0.88620300  1
  C  140  1  0.16809100  0.02027500  0.88624700  1
  C  143  1  0.83334100  0.02398500  0.88623200  1
  C  146  1  0.01633600  0.03191400  0.81476000  1
  C  147  1  0.98656000  0.30873800  0.88634700  1
  C  148  1  0.01473500  0.02281900  0.95763500  1
  C  152  1  0.98565600  0.73874000  0.88613500  1
  C  154  1  0.09688600  0.08899300  0.38600800  1
  C  155  1  0.09504900  0.16858300  0.38607000  1
  C  156  1  0.95280400  0.16884700  0.38591200  1
  C  157  1  0.95073400  0.08927200  0.38579000  1
  C  158  1  0.87847500  0.05388200  0.38578200  1
  C  159  1  0.80973600  0.09483900  0.38589200  1
  C  160  1  0.81545000  0.17412500  0.38597800  1
  C  161  1  0.88528600  0.21030500  0.38598100  1
  C  162  1  0.16268300  0.20982200  0.38618800  1
  C  163  1  0.23238600  0.17341000  0.38622200  1
  C  164  1  0.23785900  0.09410200  0.38614700  1
  C  165  1  0.16899900  0.05333700  0.38605800  1
  C  166  1  0.02305200  0.00000000  0.40421900  1
  C  167  1  0.02140500  0.92043100  0.40382600  1
  C  168  1  0.02191300  0.92012800  0.36810800  1
  C  169  1  0.02400700  0.99971500  0.36758900  1
  C  170  1  0.02185900  0.87862300  0.35114500  1
  C  171  1  0.02464700  0.91477700  0.33360900  1
  C  172  1  0.02704300  0.99399100  0.33224700  1
  C  173  1  0.02656900  0.03516200  0.34946300  1
  C  174  1  0.02342200  0.03591300  0.42228200  1
  C  175  1  0.02251000  0.99537000  0.43959000  1
  C  176  1  0.02106800  0.91606700  0.43835300  1
  C  177  1  0.02046500  0.87938800  0.42086300  1
  C  190  1  0.02372500  0.04454100  0.38588300  1
  C  191  1  0.02027900  0.87711900  0.38599300  1
  C  194  1  0.02399900  0.21182600  0.38603600  1
  C  197  1  0.03182000  0.02874100  0.31445900  1
  C  198  1  0.30875300  0.05858100  0.38614600  1
  C  199  1  0.02285900  0.03165900  0.45724400  1
  C  203  1  0.73875700  0.05947500  0.38593400  1
  C  205  1  0.00159200  0.00699000  0.24125000  1
  C  206  1  0.95401100  0.95776700  0.25119900  1
  C  207  1  0.95746400  0.95469900  0.27099100  1
  C  208  1  0.00669500  0.00264000  0.28082400  1
  C  215  1  0.03773100  0.00221300  0.74155800  1
  C  216  1  0.08691000  0.95442400  0.75145200  1
  C  217  1  0.09006800  0.95764300  0.77124700  1
  C  218  1  0.04238100  0.00699100  0.78112300  1
  C  225  1  0.01501100  0.02255400  0.03081700  1
  C  226  1  0.08910000  0.02253300  0.02372700  1
  C  227  1  0.10102600  0.02255900  0.00407100  1
  C  228  1  0.03917500  0.02262200  0.99162900  1
  C  235  1  0.02245600  0.00527900  0.53099000  1
  C  236  1  0.02247900  0.07433500  0.52115200  1
  C  237  1  0.02254600  0.07422400  0.50116900  1
  C  238  1  0.02259800  0.00506500  0.49137800  1
  C  245  1  0.09232800  0.60243500  0.13621100  1
  C  246  1  0.16071000  0.56268900  0.13622900  1
  C  247  1  0.16044600  0.48381200  0.13620000  1
  C  248  1  0.09179900  0.44452600  0.13615200  1
  C  255  1  0.44254700  0.09330200  0.63638700  1
  C  256  1  0.48229500  0.16168300  0.63633200  1
  C  257  1  0.56117200  0.16141600  0.63630300  1
  C  258  1  0.60045700  0.09276800  0.63632700  1
  C  265  1  0.95199800  0.60272500  0.88621100  1
  C  266  1  0.88361300  0.56298400  0.88622500  1
  C  267  1  0.88386800  0.48410600  0.88625800  1
  C  268  1  0.95251200  0.44481200  0.88627800  1
  C  275  1  0.60274000  0.09312400  0.38608500  1
  C  276  1  0.56300400  0.16151100  0.38616800  1
  C  277  1  0.48412400  0.16125500  0.38619900  1
  C  278  1  0.44483000  0.09261500  0.38615100  1
  C  1137  1  0.59332700  0.60190500  0.20671900  1
  C  1138  1  0.67292600  0.60006700  0.20676900  1
  C  1139  1  0.67319700  0.45785000  0.20691700  1
  C  1140  1  0.59361300  0.45576900  0.20692600  1
  C  1141  1  0.55827800  0.38348500  0.20691800  1
  C  1142  1  0.59927800  0.31476200  0.20690100  1
  C  1143  1  0.67855900  0.32050900  0.20691800  1
  C  1144  1  0.71470100  0.39036000  0.20693200  1
  C  1145  1  0.71420100  0.66768000  0.20674400  1
  C  1146  1  0.67781900  0.73739400  0.20670100  1
  C  1147  1  0.59851300  0.74288600  0.20666700  1
  C  1148  1  0.55771300  0.67403700  0.20665900  1
  C  1149  1  0.50431600  0.52809500  0.18844600  1
  C  1150  1  0.42474300  0.52639900  0.18876500  1
  C  1151  1  0.42424600  0.52677700  0.22449900  1
  C  1152  1  0.50382400  0.52898900  0.22505800  1
  C  1153  1  0.38265600  0.52661900  0.24145100  1
  C  1154  1  0.41870200  0.52946900  0.25900300  1
  C  1155  1  0.49790100  0.53203400  0.26039700  1
  C  1156  1  0.53916200  0.53161300  0.24319600  1
  C  1157  1  0.54034200  0.52855000  0.17041300  1
  C  1158  1  0.49995000  0.52769400  0.15307300  1
  C  1159  1  0.42071700  0.52621700  0.15420200  1
  C  1160  1  0.38389000  0.52551300  0.17168400  1
  C  1173  1  0.54882400  0.52874900  0.20679400  1
  C  1174  1  0.38135000  0.52515100  0.20658800  1
  C  1177  1  0.71617700  0.52903600  0.20685300  1
  C  1180  1  0.53259300  0.53705200  0.27818600  1
  C  1181  1  0.56303000  0.81380000  0.20666000  1
  C  1182  1  0.53675700  0.52811500  0.13552300  1
  C  1186  1  0.56396100  0.24376100  0.20684900  1
  C  1188  1  0.45372700  0.59445000  0.70699400  1
  C  1189  1  0.45556300  0.67403900  0.70701100  1
  C  1190  1  0.59780300  0.67431500  0.70715900  1
  C  1191  1  0.59987800  0.59474100  0.70720300  1
  C  1192  1  0.67214200  0.55936200  0.70719000  1
  C  1193  1  0.74087800  0.60032900  0.70713600  1
  C  1194  1  0.73515500  0.67961500  0.70712700  1
  C  1195  1  0.66531300  0.71578500  0.70714400  1
  C  1196  1  0.38792700  0.71528100  0.70695600  1
  C  1197  1  0.31822600  0.67886900  0.70690900  1
  C  1198  1  0.31275700  0.59955900  0.70690200  1
  C  1199  1  0.38161600  0.55879500  0.70692900  1
  C  1200  1  0.52755500  0.50556200  0.68873300  1
  C  1201  1  0.52927100  0.42598700  0.68910200  1
  C  1202  1  0.52887700  0.42547700  0.72481600  1
  C  1203  1  0.52664300  0.50505300  0.72536300  1
  C  1204  1  0.52902100  0.38387100  0.74176400  1
  C  1205  1  0.52613600  0.41991800  0.75931200  1
  C  1206  1  0.52355800  0.49911700  0.76070100  1
  C  1207  1  0.52399600  0.54039100  0.74350000  1
  C  1208  1  0.52710300  0.54155700  0.67068000  1
  C  1209  1  0.52797900  0.50108100  0.65335900  1
  C  1210  1  0.52947800  0.42177300  0.65457700  1
  C  1211  1  0.53018100  0.38502000  0.67205500  1
  C  1224  1  0.52689300  0.54999900  0.70708600  1
  C  1225  1  0.53053200  0.38257700  0.70691800  1
  C  1228  1  0.52660400  0.71728900  0.70708300  1
  C  1231  1  0.51850500  0.53376400  0.77849400  1
  C  1232  1  0.24185900  0.56404500  0.70689200  1
  C  1233  1  0.52756300  0.53740900  0.63571000  1
  C  1237  1  0.81186400  0.56497800  0.70708300  1
  C  1239  1  0.46150900  0.60218900  0.95689500  1
  C  1240  1  0.38191700  0.60035400  0.95688400  1
  C  1241  1  0.38165000  0.45812100  0.95672500  1
  C  1242  1  0.46123100  0.45605500  0.95667800  1
  C  1243  1  0.49660400  0.38378700  0.95665700  1
  C  1244  1  0.45563300  0.31505100  0.95668800  1
  C  1245  1  0.37634700  0.32077300  0.95670800  1
  C  1246  1  0.34017600  0.39061500  0.95672000  1
  C  1247  1  0.34066500  0.66798400  0.95692900  1
  C  1248  1  0.37706600  0.73769100  0.95695200  1
  C  1249  1  0.45637700  0.74316600  0.95694200  1
  C  1250  1  0.49715100  0.67430700  0.95693200  1
  C  1251  1  0.55064200  0.52836100  0.97511400  1
  C  1252  1  0.63021700  0.52673600  0.97467000  1
  C  1253  1  0.63033300  0.52721300  0.93896500  1
  C  1254  1  0.55075000  0.52931200  0.93847100  1
  C  1255  1  0.67181400  0.52713700  0.92199900  1
  C  1256  1  0.63562800  0.52992200  0.90447200  1
  C  1257  1  0.55641400  0.53235900  0.90312500  1
  C  1258  1  0.51527300  0.53188100  0.92034800  1
  C  1259  1  0.51498100  0.52872400  0.99321500  1
  C  1260  1  0.55582000  0.52781900  0.01049330  1
  C  1261  1  0.63508900  0.52639600  0.00918029  1
  C  1262  1  0.67149800  0.52580800  0.99166600  1
  C  1275  1  0.50598300  0.52903600  0.95678400  1
  C  1276  1  0.67341900  0.52560500  0.95682800  1
  C  1279  1  0.33866900  0.52931500  0.95681300  1
  C  1282  1  0.52166400  0.53724400  0.88534100  1
  C  1283  1  0.49188800  0.81406800  0.95692800  1
  C  1284  1  0.52006300  0.52814900  0.02821630  1
  C  1288  1  0.49098400  0.24407000  0.95671600  1
  C  1290  1  0.60221400  0.59432300  0.45658900  1
  C  1291  1  0.60037700  0.67391300  0.45665100  1
  C  1292  1  0.45813200  0.67417700  0.45649300  1
  C  1293  1  0.45606200  0.59460200  0.45637100  1
  C  1294  1  0.38380300  0.55921200  0.45636300  1
  C  1295  1  0.31506400  0.60016900  0.45647300  1
  C  1296  1  0.32077800  0.67945500  0.45655900  1
  C  1297  1  0.39061400  0.71563500  0.45656200  1
  C  1298  1  0.66801100  0.71515200  0.45676900  1
  C  1299  1  0.73771400  0.67874000  0.45680300  1
  C  1300  1  0.74318700  0.59943200  0.45672800  1
  C  1301  1  0.67432700  0.55866700  0.45663900  1
  C  1302  1  0.52838000  0.50533000  0.47480000  1
  C  1303  1  0.52673300  0.42576100  0.47440700  1
  C  1304  1  0.52724100  0.42545800  0.43868900  1
  C  1305  1  0.52933500  0.50504500  0.43817000  1
  C  1306  1  0.52718700  0.38395300  0.42172600  1
  C  1307  1  0.52997500  0.42010700  0.40419000  1
  C  1308  1  0.53237100  0.49932100  0.40282800  1
  C  1309  1  0.53189700  0.54049200  0.42004400  1
  C  1310  1  0.52875000  0.54124300  0.49286300  1
  C  1311  1  0.52783800  0.50070000  0.51017100  1
  C  1312  1  0.52639600  0.42139700  0.50893400  1
  C  1313  1  0.52579300  0.38471800  0.49144400  1
  C  1326  1  0.52905300  0.54987100  0.45646400  1
  C  1327  1  0.52560700  0.38244900  0.45657400  1
  C  1330  1  0.52932700  0.71715600  0.45661700  1
  C  1333  1  0.53714800  0.53407100  0.38504000  1
  C  1334  1  0.81408100  0.56391100  0.45672700  1
  C  1335  1  0.52818700  0.53698900  0.52782500  1
  C  1339  1  0.24408500  0.56480500  0.45651500  1
  C  1341  1  0.50692000  0.51232000  0.31183100  1
  C  1342  1  0.45933900  0.46309700  0.32178000  1
  C  1343  1  0.46279200  0.46002900  0.34157200  1
  C  1344  1  0.51202300  0.50797000  0.35140500  1
  C  1351  1  0.54305900  0.50754300  0.81213900  1
  C  1352  1  0.59223800  0.45975400  0.82203300  1
  C  1353  1  0.59539600  0.46297300  0.84182800  1
  C  1354  1  0.54770900  0.51232100  0.85170400  1
  C  1361  1  0.52033900  0.52788400  0.10139800  1
  C  1362  1  0.59442800  0.52786300  0.09430830  1
  C  1363  1  0.60635400  0.52788900  0.07465230  1
  C  1364  1  0.54450300  0.52795200  0.06221030  1
  C  1371  1  0.52778400  0.51060900  0.60157100  1
  C  1372  1  0.52780700  0.57966500  0.59173300  1
  C  1373  1  0.52787400  0.57955400  0.57175000  1
  C  1374  1  0.52792600  0.51039500  0.56195900  1
  C  1381  1  0.59765600  0.10776490  0.20679200  1
  C  1382  1  0.66603800  0.06801890  0.20681000  1
  C  1383  1  0.66577400  0.98914200  0.20678100  1
  C  1384  1  0.59712700  0.94985600  0.20673300  1
  C  1391  1  0.94787500  0.59863200  0.70696800  1
  C  1392  1  0.98762300  0.66701300  0.70691300  1
  C  1393  1  0.06650020  0.66674600  0.70688400  1
  C  1394  1  0.10578520  0.59809800  0.70690800  1
  C  1401  1  0.45732600  0.10805490  0.95679200  1
  C  1402  1  0.38894100  0.06831390  0.95680600  1
  C  1403  1  0.38919600  0.98943600  0.95683900  1
  C  1404  1  0.45784000  0.95014200  0.95685900  1
  C  1411  1  0.10806820  0.59845400  0.45666600  1
  C  1412  1  0.06833220  0.66684100  0.45674900  1
  C  1413  1  0.98945200  0.66658500  0.45678000  1
  C  1414  1  0.95015800  0.59794500  0.45673200  1
  H  25  1  0.88306300  0.02013100  0.07168000  1
  H  26  1  0.82108300  0.01892800  0.10126300  1
  H  27  1  0.81986000  0.01995000  0.17056400  1
  H  28  1  0.88036100  0.02525400  0.20024800  1
  H  29  1  0.09121000  0.02815500  0.17325700  1
  H  30  1  0.09245100  0.02417500  0.09939200  1
  H  31  1  0.99554800  0.87573500  0.13630500  1
  H  32  1  0.20637000  0.76824800  0.13632500  1
  H  33  1  0.26685800  0.88620900  0.13634000  1
  H  34  1  0.99496800  0.17089000  0.13605900  1
  H  35  1  0.26636300  0.16136800  0.13619800  1
  H  36  1  0.20549200  0.27909300  0.13612300  1
  H  39  1  0.83846700  0.06846000  0.13593100  1
  H  40  1  0.84156600  0.96894200  0.13600600  1
  H  42  1  0.24683300  0.02395500  0.14879500  1
  H  43  1  0.24692700  0.02358400  0.12376500  1
  H  47  1  0.08721300  0.02336300  0.06474400  1
  H  48  1  0.07879000  0.05264900  0.20872100  1
  H  49  1  0.00203600  0.31186600  0.13604100  1
  H  51  1  0.00296800  0.73493900  0.13624700  1
  H  76  1  0.02492600  0.88383300  0.57210600  1
  H  77  1  0.02611900  0.82221200  0.60165200  1
  H  78  1  0.02505300  0.82107000  0.67087900  1
  H  79  1  0.01967700  0.88156400  0.70055400  1
  H  80  1  0.01677000  0.09243400  0.67356000  1
  H  81  1  0.02080400  0.09365400  0.59962300  1
  H  82  1  0.16921000  0.99663100  0.63659500  1
  H  83  1  0.27677100  0.20740600  0.63651000  1
  H  84  1  0.15882400  0.26794300  0.63652900  1
  H  85  1  0.87413500  0.99604500  0.63634700  1
  H  86  1  0.88355900  0.26744400  0.63638700  1
  H  87  1  0.76585400  0.20651900  0.63630800  1
  H  90  1  0.97657600  0.83967000  0.63626300  1
  H  91  1  0.07610100  0.84281400  0.63634100  1
  H  93  1  0.02102400  0.24801100  0.64901200  1
  H  94  1  0.02139800  0.24796900  0.62398200  1
  H  98  1  0.02173800  0.08781800  0.56452900  1
  H  99  1  0.99224500  0.07995000  0.70904200  1
  H  100  1  0.73316000  0.00304300  0.63631300  1
  H  102  1  0.31000100  0.00398000  0.63651900  1
  H  127  1  0.16262300  0.02027500  0.95044700  1
  H  128  1  0.22364900  0.01926700  0.92084400  1
  H  129  1  0.22396300  0.02056500  0.85169300  1
  H  130  1  0.16323600  0.02580000  0.82205100  1
  H  131  1  0.95256200  0.02834700  0.84915300  1
  H  132  1  0.95223700  0.02431500  0.92318000  1
  H  133  1  0.04867600  0.87606600  0.88607700  1
  H  134  1  0.83789700  0.76849900  0.88614900  1
  H  135  1  0.77736200  0.88644300  0.88617600  1
  H  136  1  0.04924100  0.17113900  0.88633500  1
  H  137  1  0.77784400  0.16168700  0.88634100  1
  H  138  1  0.83875400  0.27940100  0.88638300  1
  H  141  1  0.20556800  0.06898200  0.88630000  1
  H  142  1  0.20262200  0.96944500  0.88621000  1
  H  144  1  0.79726200  0.02425100  0.87372700  1
  H  145  1  0.79735400  0.02384400  0.89875600  1
  H  149  1  0.95898900  0.02323900  0.95832400  1
  H  150  1  0.96479000  0.05277500  0.81364000  1
  H  151  1  0.04223000  0.31210900  0.88635800  1
  H  153  1  0.04132500  0.73527200  0.88612800  1
  H  178  1  0.02027200  0.88341300  0.45023600  1
  H  179  1  0.01924600  0.82190900  0.42067000  1
  H  180  1  0.02059800  0.82114900  0.35143000  1
  H  181  1  0.02580500  0.88182500  0.32177400  1
  H  182  1  0.02832900  0.09254400  0.34884400  1
  H  183  1  0.02435400  0.09334000  0.42277300  1
  H  184  1  0.87609500  0.99647900  0.38574900  1
  H  185  1  0.76850200  0.20723900  0.38606100  1
  H  186  1  0.88644000  0.26779000  0.38607500  1
  H  187  1  0.17115200  0.99592000  0.38600900  1
  H  188  1  0.16171900  0.26731300  0.38624000  1
  H  189  1  0.27943000  0.20639100  0.38629500  1
  H  192  1  0.06897200  0.83962900  0.38606400  1
  H  193  1  0.96944600  0.84260000  0.38596800  1
  H  195  1  0.02426500  0.24808100  0.37356100  1
  H  196  1  0.02386100  0.24763200  0.39859100  1
  H  200  1  0.02332500  0.08740200  0.45784500  1
  H  201  1  0.05259500  0.08031900  0.31333100  1
  H  202  1  0.31212000  0.00291000  0.38611300  1
  H  204  1  0.73529900  0.00380800  0.38588000  1
  H  210  1  0.92359700  0.91785600  0.27810600  1
  H  211  1  0.91716800  0.92362900  0.24416900  1
  H  220  1  0.12684900  0.92361100  0.77832800  1
  H  221  1  0.12089200  0.91755100  0.74438500  1
  H  230  1  0.15475700  0.02251500  0.99894500  1
  H  231  1  0.13421300  0.02245000  0.03263400  1
  H  240  1  0.02254000  0.12387200  0.49393800  1
  H  241  1  0.02247300  0.12405900  0.52835000  1
  H  250  1  0.21050800  0.45554800  0.13621500  1
  H  251  1  0.21096200  0.59061700  0.13626500  1
  H  260  1  0.58943600  0.21148100  0.63627000  1
  H  261  1  0.45436800  0.21193500  0.63632100  1
  H  270  1  0.83380100  0.45584700  0.88626600  1
  H  271  1  0.83336400  0.59091500  0.88621100  1
  H  280  1  0.45587100  0.21132500  0.38625000  1
  H  281  1  0.59093800  0.21176000  0.38619500  1
  H  1161  1  0.38839100  0.52546100  0.14226100  1
  H  1162  1  0.32641100  0.52425800  0.17184400  1
  H  1163  1  0.32518800  0.52528000  0.24114500  1
  H  1164  1  0.38568900  0.53058400  0.27082900  1
  H  1165  1  0.59653800  0.53348500  0.24383800  1
  H  1166  1  0.59777900  0.52950500  0.16997300  1
  H  1167  1  0.50087600  0.38106500  0.20688600  1
  H  1168  1  0.71169800  0.27357800  0.20690600  1
  H  1169  1  0.77218600  0.39153900  0.20692100  1
  H  1170  1  0.50029600  0.67622000  0.20664000  1
  H  1171  1  0.77169100  0.66668233  0.20677900  1
  H  1172  1  0.71082000  0.78442300  0.20670400  1
  H  1175  1  0.34379500  0.57379000  0.20651200  1
  H  1176  1  0.34689400  0.47427200  0.20658700  1
  H  1178  1  0.75216100  0.52928500  0.21937600  1
  H  1179  1  0.75225500  0.52891400  0.19434600  1
  H  1183  1  0.59254100  0.52869300  0.13532500  1
  H  1184  1  0.58411800  0.55797900  0.27930200  1
  H  1185  1  0.50736400  0.81719600  0.20662200  1
  H  1187  1  0.50829600  0.24026900  0.20682800  1
  H  1212  1  0.53025400  0.38916300  0.64268700  1
  H  1213  1  0.53144700  0.32754200  0.67223300  1
  H  1214  1  0.53038100  0.32640000  0.74146000  1
  H  1215  1  0.52500500  0.38689400  0.77113500  1
  H  1216  1  0.52209800  0.59776400  0.74414100  1
  H  1217  1  0.52613200  0.59898400  0.67020400  1
  H  1218  1  0.67453800  0.50196100  0.70717600  1
  H  1219  1  0.78209900  0.71273600  0.70709100  1
  H  1220  1  0.66415200  0.77327300  0.70711000  1
  H  1221  1  0.37946300  0.50137500  0.70692800  1
  H  1222  1  0.38888700  0.77277400  0.70696800  1
  H  1223  1  0.27118200  0.71184900  0.70688900  1
  H  1226  1  0.48190400  0.34500000  0.70684400  1
  H  1227  1  0.58142900  0.34814400  0.70692200  1
  H  1229  1  0.52635200  0.75334100  0.71959300  1
  H  1230  1  0.52672600  0.75329900  0.69456300  1
  H  1234  1  0.52706600  0.59314800  0.63511000  1
  H  1235  1  0.49757300  0.58528000  0.77962300  1
  H  1236  1  0.23848800  0.50837300  0.70689400  1
  H  1238  1  0.81532900  0.50931000  0.70710000  1
  H  1263  1  0.66795100  0.52560500  0.02102830  1
  H  1264  1  0.72897700  0.52459700  0.99142500  1
  H  1265  1  0.72929100  0.52589500  0.92227400  1
  H  1266  1  0.66856400  0.53113000  0.89263200  1
  H  1267  1  0.45789000  0.53367700  0.91973400  1
  H  1268  1  0.45756500  0.52964500  0.99376100  1
  H  1269  1  0.55400400  0.38139600  0.95665800  1
  H  1270  1  0.34322500  0.27382900  0.95673000  1
  H  1271  1  0.28269000  0.39177300  0.95675700  1
  H  1272  1  0.55456900  0.67646900  0.95691600  1
  H  1273  1  0.28317200  0.66701700  0.95692200  1
  H  1274  1  0.34408200  0.78473100  0.95696400  1
  H  1277  1  0.71089600  0.57431200  0.95688100  1
  H  1278  1  0.70795000  0.47477500  0.95679100  1
  H  1280  1  0.30259000  0.52958100  0.94430800  1
  H  1281  1  0.30268200  0.52917400  0.96933700  1
  H  1285  1  0.46431700  0.52856900  0.02890530  1
  H  1286  1  0.47011800  0.55810500  0.88422100  1
  H  1287  1  0.54755800  0.81743900  0.95693900  1
  H  1289  1  0.54665300  0.24060200  0.95670900  1
  H  1314  1  0.52560000  0.38874300  0.52081700  1
  H  1315  1  0.52457400  0.32723900  0.49125100  1
  H  1316  1  0.52592600  0.32647900  0.42201100  1
  H  1317  1  0.53113300  0.38715500  0.39235500  1
  H  1318  1  0.53365700  0.59787400  0.41942500  1
  H  1319  1  0.52968200  0.59867000  0.49335400  1
  H  1320  1  0.38142300  0.50180900  0.45633000  1
  H  1321  1  0.27383000  0.71256900  0.45664200  1
  H  1322  1  0.39176800  0.77312000  0.45665600  1
  H  1323  1  0.67648000  0.50125000  0.45659000  1
  H  1324  1  0.66704700  0.77264300  0.45682100  1
  H  1325  1  0.78475800  0.71172100  0.45687600  1
  H  1328  1  0.57430000  0.34495900  0.45664500  1
  H  1329  1  0.47477400  0.34793000  0.45654900  1
  H  1331  1  0.52959300  0.75341100  0.44414200  1
  H  1332  1  0.52918900  0.75296200  0.46917200  1
  H  1336  1  0.52865300  0.59273200  0.52842600  1
  H  1337  1  0.55792300  0.58564900  0.38391200  1
  H  1338  1  0.81744800  0.50824000  0.45669400  1
  H  1340  1  0.24062700  0.50913800  0.45646100  1
  H  1346  1  0.42892500  0.42318600  0.34868700  1
  H  1347  1  0.42249600  0.42895900  0.31475000  1
  H  1356  1  0.63217700  0.42894100  0.84890900  1
  H  1357  1  0.62622000  0.42288100  0.81496600  1
  H  1366  1  0.66008500  0.52784500  0.06952630  1
  H  1367  1  0.63954100  0.52778000  0.10321500  1
  H  1376  1  0.52786800  0.62920200  0.56451900  1
  H  1377  1  0.52780100  0.62938900  0.59893100  1
  H  1386  1  0.71583600  0.96087800  0.20679600  1
  H  1387  1  0.71629000  0.09594690  0.20684600  1
  H  1396  1  0.09476420  0.71681100  0.70685100  1
  H  1397  1  0.95969600  0.71726500  0.70690200  1
  H  1406  1  0.33912900  0.96117700  0.95684700  1
  H  1407  1  0.33869200  0.09624490  0.95679200  1
  H  1416  1  0.96119900  0.71665500  0.45683100  1
  H  1417  1  0.09626620  0.71709000  0.45677600  1
  N  209  1  0.05092700  0.04914400  0.27029400  1
  N  212  1  0.04814600  0.05156500  0.25167400  1
  N  213  1  0.99255700  0.01041000  0.22263600  1
  N  214  1  0.01046300  0.99396100  0.29944400  1
  N  219  1  0.99597600  0.05148700  0.77063700  1
  N  222  1  0.99343500  0.04889700  0.75201900  1
  N  223  1  0.03434900  0.99358500  0.72293400  1
  N  224  1  0.05110400  0.01058400  0.79974100  1
  N  229  1  0.96941800  0.02259400  0.99947700  1
  N  232  1  0.95852200  0.02255900  0.01784200  1
  N  233  1  0.99585900  0.02240700  0.04904400  1
  N  234  1  0.05261100  0.02254200  0.97315300  1
  N  239  1  0.02256100  0.94155800  0.50197000  1
  N  242  1  0.02251800  0.94165900  0.52044200  1
  N  243  1  0.02254800  0.99463300  0.54955700  1
  N  244  1  0.02254300  0.99422200  0.47281700  1
  N  249  1  0.02767800  0.48656500  0.13613700  1
  N  252  1  0.02793200  0.56081400  0.13616500  1
  N  253  1  0.09714900  0.67711700  0.13625000  1
  N  254  1  0.09614000  0.36982800  0.13612900  1
  N  259  1  0.55841600  0.02864800  0.63637900  1
  N  262  1  0.48416600  0.02890200  0.63640900  1
  N  263  1  0.36786500  0.09813300  0.63644100  1
  N  264  1  0.67515600  0.09712000  0.63631800  1
  N  269  1  0.01663500  0.48684500  0.88626300  1
  N  272  1  0.01639100  0.56109600  0.88623100  1
  N  273  1  0.94717200  0.67740700  0.88617500  1
  N  274  1  0.94814900  0.37011300  0.88630900  1
  N  279  1  0.48685800  0.02848900  0.38607400  1
  N  282  1  0.56111100  0.02873300  0.38604300  1
  N  283  1  0.67742200  0.09795200  0.38602600  1
  N  284  1  0.37013300  0.09698200  0.38616000  1
  N  1345  1  0.55625500  0.55447400  0.34087500  1
  N  1348  1  0.55347400  0.55689500  0.32225500  1
  N  1349  1  0.49788500  0.51574000  0.29321700  1
  N  1350  1  0.51579100  0.49929100  0.37002500  1
  N  1355  1  0.50130400  0.55681700  0.84121800  1
  N  1358  1  0.49876300  0.55422700  0.82260000  1
  N  1359  1  0.53967700  0.49891500  0.79351500  1
  N  1360  1  0.55643200  0.51591400  0.87032200  1
  N  1365  1  0.47474600  0.52792400  0.07005830  1
  N  1368  1  0.46385000  0.52788900  0.08842330  1
  N  1369  1  0.50118700  0.52773700  0.11962500  1
  N  1370  1  0.55793900  0.52787200  0.04373430  1
  N  1375  1  0.52788900  0.44688800  0.57255100  1
  N  1378  1  0.52784600  0.44698900  0.59102300  1
  N  1379  1  0.52787600  0.49996300  0.62013800  1
  N  1380  1  0.52787100  0.49955200  0.54339800  1
  N  1385  1  0.53300600  0.99189500  0.20671800  1
  N  1388  1  0.53326000  0.06614390  0.20674600  1
  N  1389  1  0.60247700  0.18244690  0.20683100  1
  N  1390  1  0.60146800  0.87515800  0.20671000  1
  N  1395  1  0.06374420  0.53397800  0.70696000  1
  N  1398  1  0.98949400  0.53423200  0.70699000  1
  N  1399  1  0.87319300  0.60346300  0.70702200  1
  N  1400  1  0.18048420  0.60245000  0.70689900  1
  N  1405  1  0.52196300  0.99217500  0.95684400  1
  N  1408  1  0.52171900  0.06642590  0.95681200  1
  N  1409  1  0.45250000  0.18273690  0.95675600  1
  N  1410  1  0.45347700  0.87544300  0.95689000  1
  N  1415  1  0.99218600  0.53381900  0.45665500  1
  N  1418  1  0.06643920  0.53406300  0.45662400  1
  N  1419  1  0.18275020  0.60328200  0.45660700  1
  N  1420  1  0.87546100  0.60231200  0.45674100  1
