# generated using pymatgen
data_Zn5H36C72N6(O2F3)8
_symmetry_space_group_name_H-M   'P 1'
_cell_length_a   7.37270000
_cell_length_b   21.10174000
_cell_length_c   26.34704000
_cell_angle_alpha   83.13327000
_cell_angle_beta   89.90476000
_cell_angle_gamma   89.94161000
_symmetry_Int_Tables_number   1
_chemical_formula_structural   Zn5H36C72N6(O2F3)8
_chemical_formula_sum   'Zn10 H72 C144 N12 O32 F48'
_cell_volume   4069.57881136
_cell_formula_units_Z   2
loop_
 _symmetry_equiv_pos_site_id
 _symmetry_equiv_pos_as_xyz
  1  'x, y, z'
loop_
 _atom_site_type_symbol
 _atom_site_label
 _atom_site_symmetry_multiplicity
 _atom_site_fract_x
 _atom_site_fract_y
 _atom_site_fract_z
 _atom_site_occupancy
  Zn  Zn1  1  0.55982000  0.01742000  0.65272000  1.0
  Zn  Zn2  1  0.20414000  0.08977000  0.59206000  1.0
  Zn  Zn3  1  0.55910000  0.48154000  0.84694000  1.0
  Zn  Zn4  1  0.20434000  0.41055000  0.90779000  1.0
  Zn  Zn5  1  0.44016000  0.98258000  0.34729000  1.0
  Zn  Zn6  1  0.79586000  0.91026000  0.40795000  1.0
  Zn  Zn7  1  0.44090000  0.51846000  0.15307000  1.0
  Zn  Zn8  1  0.79564000  0.58947000  0.09222000  1.0
  Zn  Zn9  1  0.99865000  0.99999000  0.50055000  1.0
  Zn  Zn10  1  0.00071000  0.49998000  0.00030000  1.0
  H  H1  1  0.89796000  0.18202000  0.64459000  1.0
  H  H2  1  0.02447000  0.29116000  0.64385000  1.0
  H  H3  1  0.55095000  0.36888000  0.56240000  1.0
  H  H4  1  0.42454000  0.26049000  0.56537000  1.0
  H  H5  1  0.23415000  0.45274000  0.62388000  1.0
  H  H6  1  0.35593000  0.46573000  0.70882000  1.0
  H  H7  1  0.86259000  0.39131000  0.77942000  1.0
  H  H8  1  0.73996000  0.37515000  0.69430000  1.0
  H  H9  1  0.60784000  0.89878000  0.58053000  1.0
  H  H10  1  0.34190000  0.88858000  0.50550000  1.0
  H  H11  1  0.94341000  0.65107000  0.89590000  1.0
  H  H12  1  0.12879000  0.74608000  0.02214000  1.0
  H  H13  1  0.28973000  0.82529000  0.96278000  1.0
  H  H14  1  0.08060000  0.73644000  0.83549000  1.0
  H  H15  1  0.38398000  0.84711000  0.74860000  1.0
  H  H16  1  0.18041000  0.89465000  0.68001000  1.0
  H  H17  1  0.78317000  0.93249000  0.79148000  1.0
  H  H18  1  0.97829000  0.88024000  0.86082000  1.0
  H  H19  1  0.89893000  0.31824000  0.85536000  1.0
  H  H20  1  0.02775000  0.20913000  0.85633000  1.0
  H  H21  1  0.55560000  0.13130000  0.93868000  1.0
  H  H22  1  0.42692000  0.23938000  0.93528000  1.0
  H  H23  1  0.23531000  0.04702000  0.87561000  1.0
  H  H24  1  0.35657000  0.03382000  0.79050000  1.0
  H  H25  1  0.86374000  0.10974000  0.72062000  1.0
  H  H26  1  0.74219000  0.12603000  0.80587000  1.0
  H  H27  1  0.60728000  0.60127000  0.91893000  1.0
  H  H28  1  0.34165000  0.61156000  0.99423000  1.0
  H  H29  1  0.94244000  0.84929000  0.60445000  1.0
  H  H30  1  0.13219000  0.75470000  0.47822000  1.0
  H  H31  1  0.29384000  0.67592000  0.53758000  1.0
  H  H32  1  0.07991000  0.76421000  0.66478000  1.0
  H  H33  1  0.38232000  0.65449000  0.75250000  1.0
  H  H34  1  0.17820000  0.60569000  0.82060000  1.0
  H  H35  1  0.78534000  0.56781000  0.70837000  1.0
  H  H36  1  0.98141000  0.62074000  0.63955000  1.0
  H  H37  1  0.10204000  0.81798000  0.35541000  1.0
  H  H38  1  0.97552000  0.70884000  0.35615000  1.0
  H  H39  1  0.44905000  0.63112000  0.43760000  1.0
  H  H40  1  0.57545000  0.73951000  0.43464000  1.0
  H  H41  1  0.76585000  0.54726000  0.37613000  1.0
  H  H42  1  0.64406000  0.53427000  0.29118000  1.0
  H  H43  1  0.13740000  0.60869000  0.22058000  1.0
  H  H44  1  0.26004000  0.62485000  0.30570000  1.0
  H  H45  1  0.39210000  0.10124000  0.41943000  1.0
  H  H46  1  0.65790000  0.11146000  0.49451000  1.0
  H  H47  1  0.05659000  0.34892000  0.10410000  1.0
  H  H48  1  0.87119000  0.25392000  0.97786000  1.0
  H  H49  1  0.71025000  0.17470000  0.03722000  1.0
  H  H50  1  0.91939000  0.26356000  0.16452000  1.0
  H  H51  1  0.61601000  0.15289000  0.25140000  1.0
  H  H52  1  0.81960000  0.10535000  0.31999000  1.0
  H  H53  1  0.21682000  0.06751000  0.20852000  1.0
  H  H54  1  0.02170000  0.11976000  0.13919000  1.0
  H  H55  1  0.10106000  0.68176000  0.14464000  1.0
  H  H56  1  0.97224000  0.79087000  0.14367000  1.0
  H  H57  1  0.44439000  0.86870000  0.06132000  1.0
  H  H58  1  0.57307000  0.76063000  0.06473000  1.0
  H  H59  1  0.76468000  0.95298000  0.12440000  1.0
  H  H60  1  0.64343000  0.96618000  0.20951000  1.0
  H  H61  1  0.13626000  0.89026000  0.27938000  1.0
  H  H62  1  0.25781000  0.87397000  0.19414000  1.0
  H  H63  1  0.39274000  0.39874000  0.08105000  1.0
  H  H64  1  0.65847000  0.38846000  0.00578000  1.0
  H  H65  1  0.05755000  0.15070000  0.39555000  1.0
  H  H66  1  0.86782000  0.24530000  0.52178000  1.0
  H  H67  1  0.70616000  0.32407000  0.46242000  1.0
  H  H68  1  0.92009000  0.23579000  0.33522000  1.0
  H  H69  1  0.61768000  0.34551000  0.24751000  1.0
  H  H70  1  0.82178000  0.39431000  0.17941000  1.0
  H  H71  1  0.21466000  0.43219000  0.29163000  1.0
  H  H72  1  0.01858000  0.37926000  0.36045000  1.0
  C  C1  1  0.57267000  0.14959000  0.60703000  1.0
  C  C2  1  0.65250000  0.21465000  0.60548000  1.0
  C  C3  1  0.82232000  0.22341000  0.62742000  1.0
  C  C4  1  0.89345000  0.28463000  0.62638000  1.0
  C  C5  1  0.79775000  0.33803000  0.60307000  1.0
  C  C6  1  0.62843000  0.32890000  0.58088000  1.0
  C  C7  1  0.55607000  0.26769000  0.58239000  1.0
  C  C8  1  0.89028000  0.40361000  0.60105000  1.0
  C  C9  1  0.75572000  0.46090000  0.58921000  1.0
  C  C10  1  0.03062000  0.40688000  0.55640000  1.0
  C  C11  1  0.97816000  0.41214000  0.65279000  1.0
  C  C12  1  0.15148000  0.43813000  0.65725000  1.0
  C  C13  1  0.22146000  0.44572000  0.70522000  1.0
  C  C14  1  0.11882000  0.42804000  0.74937000  1.0
  C  C15  1  0.94364000  0.40347000  0.74512000  1.0
  C  C16  1  0.87470000  0.39520000  0.69723000  1.0
  C  C17  1  0.19863000  0.43457000  0.80031000  1.0
  C  C18  1  0.48833000  0.92717000  0.56997000  1.0
  C  C19  1  0.35749000  0.92282000  0.53266000  1.0
  C  C20  1  0.95525000  0.64044000  0.99985000  1.0
  C  C21  1  0.02736000  0.69322000  0.96317000  1.0
  C  C22  1  0.01330000  0.69080000  0.91024000  1.0
  C  C23  1  0.12124000  0.74369000  0.98124000  1.0
  C  C24  1  0.21094000  0.78882000  0.94723000  1.0
  C  C25  1  0.20008000  0.78625000  0.89439000  1.0
  C  C26  1  0.09449000  0.73812000  0.87636000  1.0
  C  C27  1  0.31226000  0.82964000  0.85487000  1.0
  C  C28  1  0.46647000  0.78603000  0.83778000  1.0
  C  C29  1  0.40399000  0.88677000  0.87757000  1.0
  C  C30  1  0.19416000  0.85880000  0.80986000  1.0
  C  C31  1  0.25163000  0.86415000  0.75873000  1.0
  C  C32  1  0.13795000  0.89150000  0.71979000  1.0
  C  C33  1  0.96773000  0.91560000  0.73132000  1.0
  C  C34  1  0.91349000  0.91250000  0.78258000  1.0
  C  C35  1  0.02422000  0.88359000  0.82135000  1.0
  C  C36  1  0.84515000  0.94484000  0.68959000  1.0
  C  C37  1  0.57278000  0.34990000  0.89316000  1.0
  C  C38  1  0.65437000  0.28521000  0.89487000  1.0
  C  C39  1  0.82439000  0.27675000  0.87279000  1.0
  C  C40  1  0.89665000  0.21565000  0.87391000  1.0
  C  C41  1  0.80146000  0.16234000  0.89743000  1.0
  C  C42  1  0.63226000  0.17127000  0.91993000  1.0
  C  C43  1  0.55872000  0.23225000  0.91828000  1.0
  C  C44  1  0.89232000  0.09657000  0.89891000  1.0
  C  C45  1  0.75397000  0.04086000  0.91019000  1.0
  C  C46  1  0.03131000  0.09188000  0.94362000  1.0
  C  C47  1  0.97992000  0.08821000  0.84705000  1.0
  C  C48  1  0.15279000  0.06186000  0.84230000  1.0
  C  C49  1  0.22237000  0.05416000  0.79420000  1.0
  C  C50  1  0.11961000  0.07215000  0.75018000  1.0
  C  C51  1  0.94496000  0.09725000  0.75477000  1.0
  C  C52  1  0.87653000  0.10562000  0.80276000  1.0
  C  C53  1  0.19748000  0.06558000  0.69890000  1.0
  C  C54  1  0.48809000  0.57279000  0.92965000  1.0
  C  C55  1  0.35750000  0.57721000  0.96715000  1.0
  C  C56  1  0.95619000  0.86028000  0.50042000  1.0
  C  C57  1  0.02858000  0.80750000  0.53709000  1.0
  C  C58  1  0.01346000  0.80976000  0.59003000  1.0
  C  C59  1  0.12397000  0.75718000  0.51911000  1.0
  C  C60  1  0.21422000  0.71224000  0.55316000  1.0
  C  C61  1  0.20257000  0.71470000  0.60605000  1.0
  C  C62  1  0.09510000  0.76259000  0.62394000  1.0
  C  C63  1  0.31454000  0.67131000  0.64582000  1.0
  C  C64  1  0.46921000  0.71518000  0.66248000  1.0
  C  C65  1  0.40487000  0.61384000  0.62279000  1.0
  C  C66  1  0.19538000  0.64242000  0.69081000  1.0
  C  C67  1  0.25093000  0.63709000  0.74206000  1.0
  C  C68  1  0.13689000  0.60899000  0.78075000  1.0
  C  C69  1  0.96799000  0.58427000  0.76893000  1.0
  C  C70  1  0.91501000  0.58789000  0.71758000  1.0
  C  C71  1  0.02622000  0.61736000  0.67907000  1.0
  C  C72  1  0.84537000  0.55405000  0.81041000  1.0
  C  C73  1  0.42733000  0.85041000  0.39297000  1.0
  C  C74  1  0.34750000  0.78535000  0.39453000  1.0
  C  C75  1  0.17767000  0.77659000  0.37258000  1.0
  C  C76  1  0.10655000  0.71537000  0.37362000  1.0
  C  C77  1  0.20225000  0.66197000  0.39694000  1.0
  C  C78  1  0.37157000  0.67110000  0.41912000  1.0
  C  C79  1  0.44393000  0.73231000  0.41762000  1.0
  C  C80  1  0.10971000  0.59639000  0.39895000  1.0
  C  C81  1  0.24427000  0.53910000  0.41080000  1.0
  C  C82  1  0.96937000  0.59312000  0.44361000  1.0
  C  C83  1  0.02183000  0.58786000  0.34721000  1.0
  C  C84  1  0.84852000  0.56187000  0.34275000  1.0
  C  C85  1  0.77854000  0.55428000  0.29479000  1.0
  C  C86  1  0.88117000  0.57195000  0.25063000  1.0
  C  C87  1  0.05635000  0.59653000  0.25488000  1.0
  C  C88  1  0.12530000  0.60480000  0.30277000  1.0
  C  C89  1  0.80136000  0.56543000  0.19970000  1.0
  C  C90  1  0.51160000  0.07286000  0.43001000  1.0
  C  C91  1  0.64223000  0.07721000  0.46737000  1.0
  C  C92  1  0.04476000  0.35953000  0.00016000  1.0
  C  C93  1  0.97260000  0.30676000  0.03683000  1.0
  C  C94  1  0.98668000  0.30919000  0.08976000  1.0
  C  C95  1  0.87873000  0.25630000  0.01877000  1.0
  C  C96  1  0.78904000  0.21117000  0.05277000  1.0
  C  C97  1  0.79990000  0.21374000  0.10562000  1.0
  C  C98  1  0.90550000  0.26188000  0.12365000  1.0
  C  C99  1  0.68773000  0.17035000  0.14514000  1.0
  C  C100  1  0.53352000  0.21396000  0.16222000  1.0
  C  C101  1  0.59600000  0.11323000  0.12243000  1.0
  C  C102  1  0.80583000  0.14120000  0.19014000  1.0
  C  C103  1  0.74837000  0.13585000  0.24127000  1.0
  C  C104  1  0.86205000  0.10850000  0.28021000  1.0
  C  C105  1  0.03227000  0.08440000  0.26868000  1.0
  C  C106  1  0.08650000  0.08750000  0.21742000  1.0
  C  C107  1  0.97577000  0.11642000  0.17865000  1.0
  C  C108  1  0.15485000  0.05517000  0.31041000  1.0
  C  C109  1  0.42721000  0.65010000  0.10684000  1.0
  C  C110  1  0.34562000  0.71479000  0.10513000  1.0
  C  C111  1  0.17561000  0.72325000  0.12721000  1.0
  C  C112  1  0.10334000  0.78435000  0.12609000  1.0
  C  C113  1  0.19854000  0.83766000  0.10257000  1.0
  C  C114  1  0.36774000  0.82873000  0.08008000  1.0
  C  C115  1  0.44127000  0.76775000  0.08173000  1.0
  C  C116  1  0.10767000  0.90343000  0.10109000  1.0
  C  C117  1  0.24602000  0.95914000  0.08982000  1.0
  C  C118  1  0.96868000  0.90812000  0.05638000  1.0
  C  C119  1  0.02007000  0.91179000  0.15296000  1.0
  C  C120  1  0.84720000  0.93814000  0.15770000  1.0
  C  C121  1  0.77762000  0.94584000  0.20580000  1.0
  C  C122  1  0.88038000  0.92785000  0.24982000  1.0
  C  C123  1  0.05503000  0.90275000  0.24523000  1.0
  C  C124  1  0.12347000  0.89438000  0.19725000  1.0
  C  C125  1  0.80251000  0.93442000  0.30111000  1.0
  C  C126  1  0.51193000  0.42723000  0.07033000  1.0
  C  C127  1  0.64266000  0.42281000  0.03287000  1.0
  C  C128  1  0.04378000  0.13969000  0.49959000  1.0
  C  C129  1  0.97147000  0.19249000  0.46291000  1.0
  C  C130  1  0.98655000  0.19023000  0.40997000  1.0
  C  C131  1  0.87606000  0.24282000  0.48089000  1.0
  C  C132  1  0.78579000  0.28775000  0.44684000  1.0
  C  C133  1  0.79744000  0.28530000  0.39396000  1.0
  C  C134  1  0.90490000  0.23741000  0.37607000  1.0
  C  C135  1  0.68545000  0.32869000  0.35418000  1.0
  C  C136  1  0.53079000  0.28482000  0.33752000  1.0
  C  C137  1  0.59513000  0.38616000  0.37721000  1.0
  C  C138  1  0.80461000  0.35758000  0.30919000  1.0
  C  C139  1  0.74906000  0.36291000  0.25794000  1.0
  C  C140  1  0.86310000  0.39101000  0.21926000  1.0
  C  C141  1  0.03201000  0.41573000  0.23107000  1.0
  C  C142  1  0.08498000  0.41211000  0.28243000  1.0
  C  C143  1  0.97377000  0.38265000  0.32093000  1.0
  C  C144  1  0.15461000  0.44595000  0.18959000  1.0
  N  N1  1  0.44577000  0.97867000  0.59363000  1.0
  N  N2  1  0.29616000  0.00544000  0.57194000  1.0
  N  N3  1  0.24084000  0.97212000  0.53481000  1.0
  N  N4  1  0.44569000  0.52117000  0.90614000  1.0
  N  N5  1  0.29649000  0.49443000  0.92815000  1.0
  N  N6  1  0.24123000  0.52782000  0.96532000  1.0
  N  N7  1  0.55431000  0.02135000  0.40638000  1.0
  N  N8  1  0.70379000  0.99456000  0.42814000  1.0
  N  N9  1  0.75879000  0.02789000  0.46529000  1.0
  N  N10  1  0.55426000  0.47884000  0.09387000  1.0
  N  N11  1  0.70354000  0.50556000  0.07190000  1.0
  N  N12  1  0.75897000  0.47218000  0.03475000  1.0
  O  O1  1  0.41826000  0.14615000  0.58551000  1.0
  O  O2  1  0.66337000  0.10263000  0.62913000  1.0
  O  O3  1  0.35743000  0.45747000  0.80119000  1.0
  O  O4  1  0.10102000  0.41545000  0.83973000  1.0
  O  O5  1  0.89960000  0.58961000  0.98247000  1.0
  O  O6  1  0.95564000  0.64700000  0.04760000  1.0
  O  O7  1  0.88175000  0.94320000  0.64335000  1.0
  O  O8  1  0.69989000  0.97141000  0.70620000  1.0
  O  O9  1  0.41759000  0.35292000  0.91446000  1.0
  O  O10  1  0.66334000  0.39689000  0.87106000  1.0
  O  O11  1  0.35439000  0.04128000  0.69706000  1.0
  O  O12  1  0.09989000  0.08610000  0.65989000  1.0
  O  O13  1  0.89918000  0.91101000  0.51778000  1.0
  O  O14  1  0.95779000  0.85403000  0.45263000  1.0
  O  O15  1  0.88123000  0.55529000  0.85671000  1.0
  O  O16  1  0.70114000  0.52728000  0.79354000  1.0
  O  O17  1  0.58175000  0.85385000  0.41449000  1.0
  O  O18  1  0.33664000  0.89737000  0.37087000  1.0
  O  O19  1  0.64256000  0.54253000  0.19881000  1.0
  O  O20  1  0.89898000  0.58455000  0.16027000  1.0
  O  O21  1  0.10062000  0.41032000  0.01757000  1.0
  O  O22  1  0.04436000  0.35300000  0.95241000  1.0
  O  O23  1  0.11827000  0.05681000  0.35664000  1.0
  O  O24  1  0.30012000  0.02859000  0.29379000  1.0
  O  O25  1  0.58240000  0.64708000  0.08554000  1.0
  O  O26  1  0.33665000  0.60311000  0.12894000  1.0
  O  O27  1  0.64560000  0.95872000  0.30294000  1.0
  O  O28  1  0.90010000  0.91390000  0.34012000  1.0
  O  O29  1  0.10043000  0.08889000  0.48228000  1.0
  O  O30  1  0.04213000  0.14597000  0.54739000  1.0
  O  O31  1  0.11876000  0.44471000  0.14328000  1.0
  O  O32  1  0.29884000  0.47272000  0.20646000  1.0
  F  F1  1  0.69071000  0.46673000  0.54042000  1.0
  F  F2  1  0.60918000  0.45395000  0.62119000  1.0
  F  F3  1  0.83591000  0.51732000  0.59594000  1.0
  F  F4  1  0.95480000  0.39051000  0.51273000  1.0
  F  F5  1  0.17202000  0.36541000  0.56814000  1.0
  F  F6  1  0.10093000  0.46649000  0.54529000  1.0
  F  F7  1  0.60031000  0.81899000  0.81059000  1.0
  F  F8  1  0.40010000  0.74277000  0.80806000  1.0
  F  F9  1  0.54635000  0.75217000  0.87896000  1.0
  F  F10  1  0.48205000  0.92759000  0.84029000  1.0
  F  F11  1  0.28064000  0.92079000  0.90160000  1.0
  F  F12  1  0.53753000  0.86928000  0.91209000  1.0
  F  F13  1  0.69077000  0.03467000  0.95933000  1.0
  F  F14  1  0.60762000  0.05073000  0.87870000  1.0
  F  F15  1  0.82726000  0.98403000  0.90169000  1.0
  F  F16  1  0.95492000  0.10795000  0.98736000  1.0
  F  F17  1  0.17278000  0.13311000  0.93192000  1.0
  F  F18  1  0.10060000  0.03199000  0.95458000  1.0
  F  F19  1  0.59929000  0.68273000  0.69184000  1.0
  F  F20  1  0.40082000  0.76135000  0.68946000  1.0
  F  F21  1  0.55523000  0.74622000  0.62106000  1.0
  F  F22  1  0.48189000  0.57151000  0.65938000  1.0
  F  F23  1  0.28054000  0.58079000  0.59841000  1.0
  F  F24  1  0.53772000  0.63199000  0.58812000  1.0
  F  F25  1  0.30929000  0.53327000  0.45958000  1.0
  F  F26  1  0.39082000  0.54605000  0.37882000  1.0
  F  F27  1  0.16409000  0.48268000  0.40407000  1.0
  F  F28  1  0.04520000  0.60949000  0.48727000  1.0
  F  F29  1  0.82797000  0.63459000  0.43186000  1.0
  F  F30  1  0.89907000  0.53351000  0.45471000  1.0
  F  F31  1  0.39968000  0.18101000  0.18942000  1.0
  F  F32  1  0.59989000  0.25723000  0.19195000  1.0
  F  F33  1  0.45364000  0.24783000  0.12104000  1.0
  F  F34  1  0.51794000  0.07241000  0.15971000  1.0
  F  F35  1  0.71936000  0.07921000  0.09840000  1.0
  F  F36  1  0.46246000  0.13072000  0.08791000  1.0
  F  F37  1  0.30922000  0.96533000  0.04067000  1.0
  F  F38  1  0.39237000  0.94927000  0.12130000  1.0
  F  F39  1  0.17274000  0.01597000  0.09831000  1.0
  F  F40  1  0.04508000  0.89205000  0.01265000  1.0
  F  F41  1  0.82722000  0.86689000  0.06808000  1.0
  F  F42  1  0.89939000  0.96801000  0.04542000  1.0
  F  F43  1  0.40071000  0.31727000  0.30816000  1.0
  F  F44  1  0.59918000  0.23865000  0.31054000  1.0
  F  F45  1  0.44476000  0.25378000  0.37894000  1.0
  F  F46  1  0.51810000  0.42849000  0.34062000  1.0
  F  F47  1  0.71945000  0.41921000  0.40160000  1.0
  F  F48  1  0.46227000  0.36801000  0.41189000  1.0
