# generated using pymatgen
data_ErH14C24(NO3)2
_symmetry_space_group_name_H-M   'P 1'
_cell_length_a   10.01994000
_cell_length_b   10.93214000
_cell_length_c   13.06825000
_cell_angle_alpha   98.64958000
_cell_angle_beta   108.84496000
_cell_angle_gamma   109.32236000
_symmetry_Int_Tables_number   1
_chemical_formula_structural   ErH14C24(NO3)2
_chemical_formula_sum   'Er2 H28 C48 N4 O12'
_cell_volume   1224.25114226
_cell_formula_units_Z   2
loop_
 _symmetry_equiv_pos_site_id
 _symmetry_equiv_pos_as_xyz
  1  'x, y, z'
loop_
 _atom_site_type_symbol
 _atom_site_label
 _atom_site_symmetry_multiplicity
 _atom_site_fract_x
 _atom_site_fract_y
 _atom_site_fract_z
 _atom_site_occupancy
  Er  Er0  1  0.15351000  0.70593000  0.19484000  1
  Er  Er1  1  0.84651000  0.29409000  0.80516000  1
  H  H2  1  0.73627000  0.62445000  0.17723000  1
  H  H3  1  0.51413000  0.35950000  0.83822000  1
  H  H4  1  0.83564000  0.92162000  0.29432000  1
  H  H5  1  0.22930000  0.94534000  0.57006000  1
  H  H6  1  0.21362000  0.40392000  0.42690000  1
  H  H7  1  0.63480000  0.68435000  0.43170000  1
  H  H8  1  0.95240000  0.62701000  0.91426000  1
  H  H9  1  0.88630000  0.73073000  0.75999000  1
  H  H10  1  0.01790000  0.98556000  0.80130000  1
  H  H11  1  0.21648000  0.20580000  0.93881000  1
  H  H12  1  0.41864000  0.33553000  0.13051000  1
  H  H13  1  0.57068000  0.33748000  0.32869000  1
  H  H14  1  0.62848000  0.20309000  0.46494000  1
  H  H15  1  0.47349000  0.95267000  0.40241000  1
  H  H16  1  0.26374000  0.37555000  0.82275000  1
  H  H17  1  0.48588000  0.64050000  0.16176000  1
  H  H18  1  0.16437000  0.07837000  0.70568000  1
  H  H19  1  0.77071000  0.05465000  0.42993000  1
  H  H20  1  0.78639000  0.59609000  0.57310000  1
  H  H21  1  0.36521000  0.31567000  0.56830000  1
  H  H22  1  0.04761000  0.37299000  0.08572000  1
  H  H23  1  0.11370000  0.26929000  0.23999000  1
  H  H24  1  0.98210000  0.01446000  0.19870000  1
  H  H25  1  0.78352000  0.79421000  0.06119000  1
  H  H26  1  0.58135000  0.66447000  0.86949000  1
  H  H27  1  0.42931000  0.66253000  0.67130000  1
  H  H28  1  0.37152000  0.79692000  0.53505000  1
  H  H29  1  0.52653000  0.04734000  0.59758000  1
  C  C30  1  0.78780000  0.48269000  0.01596000  1
  C  C31  1  0.63873000  0.49011000  0.00891000  1
  C  C32  1  0.63201000  0.56990000  0.10044000  1
  C  C33  1  0.50612000  0.42010000  0.90842000  1
  C  C34  1  0.07809000  0.85006000  0.34339000  1
  C  C35  1  0.03718000  0.92662000  0.42418000  1
  C  C36  1  0.90724000  0.95679000  0.38435000  1
  C  C37  1  0.12937000  0.96975000  0.54032000  1
  C  C38  1  0.32478000  0.59971000  0.33555000  1
  C  C39  1  0.41531000  0.54777000  0.41987000  1
  C  C40  1  0.33893000  0.44434000  0.45883000  1
  C  C41  1  0.57710000  0.60348000  0.46189000  1
  C  C42  1  0.00903000  0.73579000  0.93014000  1
  C  C43  1  0.97289000  0.79555000  0.84273000  1
  C  C44  1  0.04628000  0.93389000  0.86493000  1
  C  C45  1  0.16029000  0.01192000  0.97408000  1
  C  C46  1  0.24431000  0.15530000  0.00326000  1
  C  C47  1  0.35541000  0.22658000  0.10930000  1
  C  C48  1  0.39130000  0.15977000  0.19419000  1
  C  C49  1  0.50698000  0.22808000  0.30440000  1
  C  C50  1  0.53825000  0.15512000  0.38016000  1
  C  C51  1  0.45195000  0.01433000  0.34610000  1
  C  C52  1  0.30894000  0.01745000  0.16789000  1
  C  C53  1  0.19065000  0.94307000  0.05681000  1
  C  C54  1  0.21221000  0.51731000  0.98403000  1
  C  C55  1  0.36127000  0.50989000  0.99107000  1
  C  C56  1  0.36800000  0.43010000  0.89954000  1
  C  C57  1  0.49389000  0.57990000  0.09156000  1
  C  C58  1  0.92191000  0.14994000  0.65660000  1
  C  C59  1  0.96282000  0.07336000  0.57582000  1
  C  C60  1  0.09276000  0.04320000  0.61564000  1
  C  C61  1  0.87064000  0.03024000  0.45967000  1
  C  C62  1  0.67522000  0.40028000  0.66443000  1
  C  C63  1  0.58470000  0.45224000  0.58013000  1
  C  C64  1  0.66108000  0.55566000  0.54116000  1
  C  C65  1  0.42291000  0.39652000  0.53811000  1
  C  C66  1  0.99097000  0.26422000  0.06984000  1
  C  C67  1  0.02711000  0.20447000  0.15726000  1
  C  C68  1  0.95374000  0.06613000  0.13507000  1
  C  C69  1  0.83972000  0.98810000  0.02592000  1
  C  C70  1  0.75570000  0.84471000  0.99673000  1
  C  C71  1  0.64459000  0.77342000  0.89069000  1
  C  C72  1  0.60870000  0.84025000  0.80580000  1
  C  C73  1  0.49302000  0.77193000  0.69559000  1
  C  C74  1  0.46175000  0.84489000  0.61983000  1
  C  C75  1  0.54806000  0.98568000  0.65389000  1
  C  C76  1  0.69106000  0.98257000  0.83209000  1
  C  C77  1  0.80936000  0.05695000  0.94318000  1
  N  N78  1  0.11277000  0.80706000  0.03488000  1
  N  N79  1  0.33914000  0.94679000  0.24363000  1
  N  N80  1  0.88724000  0.19295000  0.96510000  1
  N  N81  1  0.66087000  0.05323000  0.75636000  1
  O  O82  1  0.90751000  0.55173000  0.10651000  1
  O  O83  1  0.78710000  0.40970000  0.93033000  1
  O  O84  1  0.01371000  0.83513000  0.23740000  1
  O  O85  1  0.17765000  0.80096000  0.38007000  1
  O  O86  1  0.17868000  0.53321000  0.28333000  1
  O  O87  1  0.39441000  0.71085000  0.31798000  1
  O  O88  1  0.09250000  0.44827000  0.89350000  1
  O  O89  1  0.21293000  0.59030000  0.06968000  1
  O  O90  1  0.98630000  0.16488000  0.76259000  1
  O  O91  1  0.82232000  0.19901000  0.61991000  1
  O  O92  1  0.82133000  0.46679000  0.71666000  1
  O  O93  1  0.60560000  0.28917000  0.68202000  1
