# generated using pymatgen
data_Zn5H20C32(NO)12
_symmetry_space_group_name_H-M   'P 1'
_cell_length_a   9.26445000
_cell_length_b   22.36835641
_cell_length_c   22.36839616
_cell_angle_alpha   69.99737999
_cell_angle_beta   78.46528271
_cell_angle_gamma   78.46525959
_symmetry_Int_Tables_number   1
_chemical_formula_structural   Zn5H20C32(NO)12
_chemical_formula_sum   'Zn10 H40 C64 N24 O24'
_cell_volume   4224.02485533
_cell_formula_units_Z   2
loop_
 _symmetry_equiv_pos_site_id
 _symmetry_equiv_pos_as_xyz
  1  'x, y, z'
loop_
 _atom_site_type_symbol
 _atom_site_label
 _atom_site_symmetry_multiplicity
 _atom_site_fract_x
 _atom_site_fract_y
 _atom_site_fract_z
 _atom_site_occupancy
  Zn  Zn0  1  0.07798000  0.97592000  0.86506000  1
  Zn  Zn1  1  0.90648000  0.49625000  0.69407000  1
  Zn  Zn2  1  0.42200000  0.63495000  0.52408000  1
  Zn  Zn3  1  0.59350000  0.80594000  0.00375000  1
  Zn  Zn4  1  0.57798000  0.36506000  0.47592000  1
  Zn  Zn5  1  0.40648000  0.19407000  0.99625000  1
  Zn  Zn6  1  0.92200000  0.02409000  0.13494000  1
  Zn  Zn7  1  0.09351000  0.50375000  0.30593000  1
  Zn  Zn8  1  0.00000000  0.00000000  0.00000000  1
  Zn  Zn9  1  0.50000000  0.50000000  0.50000000  1
  H  H10  1  0.82104000  0.87276000  0.87939000  1
  H  H11  1  0.73432000  0.89737000  0.06157000  1
  H  H12  1  0.67896000  0.62061000  0.62724000  1
  H  H13  1  0.76566000  0.43843000  0.60264000  1
  H  H14  1  0.92045000  0.37959000  0.37252000  1
  H  H15  1  0.80771000  0.56201000  0.39659000  1
  H  H16  1  0.57953000  0.12748000  0.12041000  1
  H  H17  1  0.69228000  0.10340000  0.93800000  1
  H  H18  1  0.17896000  0.12725000  0.12060000  1
  H  H19  1  0.26566000  0.10264000  0.93843000  1
  H  H20  1  0.32103000  0.37939000  0.37276000  1
  H  H21  1  0.23433000  0.56157000  0.39736000  1
  H  H22  1  0.07955000  0.62041000  0.62747000  1
  H  H23  1  0.19229000  0.43800000  0.60340000  1
  H  H24  1  0.42046000  0.87252000  0.87959000  1
  H  H25  1  0.30771000  0.89660000  0.06200000  1
  H  H26  1  0.07095000  0.15566000  0.70485000  1
  H  H27  1  0.96529000  0.18466000  0.89009000  1
  H  H28  1  0.93127000  0.30445000  0.83598000  1
  H  H29  1  0.03585000  0.27576000  0.65149000  1
  H  H30  1  0.78676000  0.73021000  0.69879000  1
  H  H31  1  0.78613000  0.56335000  0.86580000  1
  H  H32  1  0.42904000  0.79516000  0.34433000  1
  H  H33  1  0.53470000  0.60991000  0.31534000  1
  H  H34  1  0.56872000  0.66402000  0.19555000  1
  H  H35  1  0.46415000  0.84851000  0.22423000  1
  H  H36  1  0.71323000  0.80121000  0.76979000  1
  H  H37  1  0.71387000  0.63420000  0.93664000  1
  H  H38  1  0.57095000  0.20485000  0.65566000  1
  H  H39  1  0.46528000  0.39010000  0.68466000  1
  H  H40  1  0.43128000  0.33598000  0.80444000  1
  H  H41  1  0.53585000  0.15149000  0.77576000  1
  H  H42  1  0.28675000  0.19880000  0.23021000  1
  H  H43  1  0.28613000  0.36580000  0.06335000  1
  H  H44  1  0.92904000  0.84434000  0.29515000  1
  H  H45  1  0.03470000  0.81535000  0.10990000  1
  H  H46  1  0.06871000  0.69556000  0.16402000  1
  H  H47  1  0.96416000  0.72424000  0.34850000  1
  H  H48  1  0.21324000  0.26979000  0.30120000  1
  H  H49  1  0.21386000  0.43665000  0.13420000  1
  C  C50  1  0.82717000  0.88917000  0.91910000  1
  C  C51  1  0.78228000  0.90199000  0.01212000  1
  C  C52  1  0.67282000  0.58090000  0.61083000  1
  C  C53  1  0.71771000  0.48788000  0.59801000  1
  C  C54  1  0.85984000  0.41945000  0.38863000  1
  C  C55  1  0.80256000  0.51261000  0.40116000  1
  C  C56  1  0.64015000  0.11137000  0.08055000  1
  C  C57  1  0.69743000  0.09884000  0.98739000  1
  C  C58  1  0.17282000  0.11083000  0.08090000  1
  C  C59  1  0.21772000  0.09801000  0.98787000  1
  C  C60  1  0.32717000  0.41910000  0.38917000  1
  C  C61  1  0.28228000  0.51213000  0.40198000  1
  C  C62  1  0.14015000  0.58055000  0.61137000  1
  C  C63  1  0.19742000  0.48740000  0.59884000  1
  C  C64  1  0.35984000  0.88863000  0.91945000  1
  C  C65  1  0.30257000  0.90116000  0.01260000  1
  C  C66  1  0.98220000  0.29640000  0.74074000  1
  C  C67  1  0.04121000  0.09320000  0.83125000  1
  C  C68  1  0.02075000  0.16337000  0.80048000  1
  C  C69  1  0.04063000  0.18859000  0.73298000  1
  C  C70  1  0.96352000  0.36768000  0.70653000  1
  C  C71  1  0.98087000  0.20496000  0.83796000  1
  C  C72  1  0.96184000  0.27126000  0.80809000  1
  C  C73  1  0.79074000  0.64290000  0.77799000  1
  C  C74  1  0.02131000  0.25471000  0.70352000  1
  C  C75  1  0.77020000  0.71007000  0.75086000  1
  C  C76  1  0.77014000  0.61546000  0.84520000  1
  C  C77  1  0.83389000  0.60336000  0.73319000  1
  C  C78  1  0.51778000  0.75927000  0.20360000  1
  C  C79  1  0.45879000  0.66875000  0.40679000  1
  C  C80  1  0.47924000  0.69952000  0.33663000  1
  C  C81  1  0.45936000  0.76702000  0.31141000  1
  C  C82  1  0.53647000  0.79346000  0.13232000  1
  C  C83  1  0.51912000  0.66204000  0.29504000  1
  C  C84  1  0.53815000  0.69191000  0.22874000  1
  C  C85  1  0.70926000  0.72201000  0.85709000  1
  C  C86  1  0.47869000  0.79648000  0.24528000  1
  C  C87  1  0.72979000  0.74914000  0.78993000  1
  C  C88  1  0.72985000  0.65480000  0.88454000  1
  C  C89  1  0.66610000  0.76681000  0.89664000  1
  C  C90  1  0.48221000  0.24074000  0.79639000  1
  C  C91  1  0.54121000  0.33125000  0.59320000  1
  C  C92  1  0.52075000  0.30048000  0.66337000  1
  C  C93  1  0.54063000  0.23298000  0.68859000  1
  C  C94  1  0.46353000  0.20654000  0.86767000  1
  C  C95  1  0.48087000  0.33796000  0.70496000  1
  C  C96  1  0.46184000  0.30809000  0.77126000  1
  C  C97  1  0.29073000  0.27800000  0.14290000  1
  C  C98  1  0.52131000  0.20352000  0.75471000  1
  C  C99  1  0.27020000  0.25086000  0.21007000  1
  C  C100  1  0.27013000  0.34521000  0.11546000  1
  C  C101  1  0.33388000  0.23320000  0.10336000  1
  C  C102  1  0.01778000  0.70361000  0.25926000  1
  C  C103  1  0.95878000  0.90680000  0.16875000  1
  C  C104  1  0.97923000  0.83664000  0.19952000  1
  C  C105  1  0.95935000  0.81142000  0.26702000  1
  C  C106  1  0.03647000  0.63233000  0.29346000  1
  C  C107  1  0.01913000  0.79504000  0.16203000  1
  C  C108  1  0.03814000  0.72875000  0.19191000  1
  C  C109  1  0.20926000  0.35710000  0.22200000  1
  C  C110  1  0.97868000  0.74529000  0.29648000  1
  C  C111  1  0.22979000  0.28993000  0.24914000  1
  C  C112  1  0.22985000  0.38454000  0.15480000  1
  C  C113  1  0.16610000  0.39664000  0.26681000  1
  N  N114  1  0.90699000  0.93369000  0.91672000  1
  N  N115  1  0.74771000  0.86821000  0.97800000  1
  N  N116  1  0.87864000  0.94191000  0.97668000  1
  N  N117  1  0.59299000  0.58329000  0.56631000  1
  N  N118  1  0.75229000  0.52200000  0.63179000  1
  N  N119  1  0.62134000  0.52333000  0.55809000  1
  N  N120  1  0.73804000  0.41752000  0.43242000  1
  N  N121  1  0.90349000  0.47818000  0.36791000  1
  N  N122  1  0.70056000  0.47753000  0.44052000  1
  N  N123  1  0.76195000  0.06758000  0.08248000  1
  N  N124  1  0.59649000  0.13210000  0.02182000  1
  N  N125  1  0.79943000  0.05948000  0.02247000  1
  N  N126  1  0.09300000  0.06631000  0.08328000  1
  N  N127  1  0.25228000  0.13179000  0.02200000  1
  N  N128  1  0.12134000  0.05810000  0.02332000  1
  N  N129  1  0.40699000  0.41672000  0.43369000  1
  N  N130  1  0.24770000  0.47800000  0.36821000  1
  N  N131  1  0.37864000  0.47668000  0.44191000  1
  N  N132  1  0.26194000  0.58249000  0.56758000  1
  N  N133  1  0.09650000  0.52182000  0.63209000  1
  N  N134  1  0.29942000  0.52248000  0.55948000  1
  N  N135  1  0.23804000  0.93242000  0.91752000  1
  N  N136  1  0.40349000  0.86791000  0.97818000  1
  N  N137  1  0.20057000  0.94052000  0.97753000  1
  O  O138  1  0.98056000  0.38759000  0.64619000  1
  O  O139  1  0.07709000  0.05641000  0.79471000  1
  O  O140  1  0.02439000  0.06770000  0.89261000  1
  O  O141  1  0.93068000  0.40410000  0.74321000  1
  O  O142  1  0.85008000  0.54130000  0.75912000  1
  O  O143  1  0.85214000  0.63132000  0.67330000  1
  O  O144  1  0.51943000  0.85382000  0.11240000  1
  O  O145  1  0.42290000  0.70529000  0.44358000  1
  O  O146  1  0.47560000  0.60739000  0.43230000  1
  O  O147  1  0.56930000  0.75680000  0.09590000  1
  O  O148  1  0.64993000  0.74088000  0.95869000  1
  O  O149  1  0.64785000  0.82670000  0.86868000  1
  O  O150  1  0.48056000  0.14618000  0.88760000  1
  O  O151  1  0.57709000  0.29472000  0.55641000  1
  O  O152  1  0.52439000  0.39261000  0.56770000  1
  O  O153  1  0.43069000  0.24321000  0.90409000  1
  O  O154  1  0.35007000  0.25912000  0.04130000  1
  O  O155  1  0.35214000  0.17330000  0.13132000  1
  O  O156  1  0.01943000  0.61241000  0.35381000  1
  O  O157  1  0.92291000  0.94359000  0.20528000  1
  O  O158  1  0.97561000  0.93230000  0.10738000  1
  O  O159  1  0.06930000  0.59591000  0.25679000  1
  O  O160  1  0.14991000  0.45870000  0.24088000  1
  O  O161  1  0.14785000  0.36868000  0.32670000  1
