# generated using pymatgen
data_ZnH11C18(NO2)2
_symmetry_space_group_name_H-M   'P 1'
_cell_length_a   10.41949000
_cell_length_b   11.99193000
_cell_length_c   32.13775000
_cell_angle_alpha   89.96559000
_cell_angle_beta   90.00951000
_cell_angle_gamma   89.95085000
_symmetry_Int_Tables_number   1
_chemical_formula_structural   ZnH11C18(NO2)2
_chemical_formula_sum   'Zn8 H88 C144 N16 O32'
_cell_volume   4015.60300781
_cell_formula_units_Z   8
loop_
 _symmetry_equiv_pos_site_id
 _symmetry_equiv_pos_as_xyz
  1  'x, y, z'
loop_
 _atom_site_type_symbol
 _atom_site_label
 _atom_site_symmetry_multiplicity
 _atom_site_fract_x
 _atom_site_fract_y
 _atom_site_fract_z
 _atom_site_occupancy
  Zn  Zn1  1  0.61326000  0.83075000  0.04457000  1.0
  Zn  Zn2  1  0.87960000  0.04674000  0.64614000  1.0
  Zn  Zn3  1  0.88676000  0.16937000  0.54454000  1.0
  Zn  Zn4  1  0.62040000  0.95326000  0.14606000  1.0
  Zn  Zn5  1  0.38695000  0.33117000  0.45541000  1.0
  Zn  Zn6  1  0.12061000  0.54699000  0.85403000  1.0
  Zn  Zn7  1  0.11306000  0.66884000  0.95546000  1.0
  Zn  Zn8  1  0.37908000  0.45299000  0.35399000  1.0
  H  H1  1  0.24023000  0.92445000  0.03929000  1.0
  H  H2  1  0.00194000  0.91603000  0.03445000  1.0
  H  H3  1  0.86447000  0.80026000  0.17069000  1.0
  H  H4  1  0.97333000  0.73550000  0.23422000  1.0
  H  H5  1  0.21408000  0.72202000  0.23566000  1.0
  H  H6  1  0.33853000  0.78174000  0.17464000  1.0
  H  H7  1  0.52035000  0.22252000  0.06154000  1.0
  H  H8  1  0.49005000  0.41203000  0.03029000  1.0
  H  H9  1  0.66666667  0.66592000  0.13138000  1.0
  H  H10  1  0.74833000  0.64560000  0.20273000  1.0
  H  H11  1  0.76625000  0.45674000  0.23552000  1.0
  H  H12  1  0.69778000  0.28995000  0.19625000  1.0
  H  H13  1  0.53859000  0.06764000  0.78845000  1.0
  H  H14  1  0.44547000  0.99418000  0.85342000  1.0
  H  H15  1  0.82781000  0.94774000  0.90331000  1.0
  H  H16  1  0.91909000  0.02195000  0.83812000  1.0
  H  H17  1  0.70680000  0.97480000  0.72737000  1.0
  H  H18  1  0.99240000  0.22074000  0.71165000  1.0
  H  H19  1  0.91896000  0.21900000  0.79461000  1.0
  H  H20  1  0.75115000  0.91002000  0.95923000  1.0
  H  H21  1  0.36440000  0.83625000  0.98742000  1.0
  H  H22  1  0.37456000  0.91086000  0.90648000  1.0
  H  H23  1  0.25936000  0.07529000  0.53933000  1.0
  H  H24  1  0.49765000  0.08387000  0.53440000  1.0
  H  H25  1  0.63543000  0.19979000  0.67064000  1.0
  H  H26  1  0.52645000  0.26433000  0.73413000  1.0
  H  H27  1  0.28573000  0.27786000  0.73554000  1.0
  H  H28  1  0.16133000  0.21823000  0.67450000  1.0
  H  H29  1  0.97908000  0.77740000  0.56168000  1.0
  H  H30  1  0.00942000  0.58773000  0.53064000  1.0
  H  H31  1  0.83259000  0.33430000  0.63183000  1.0
  H  H32  1  0.75115000  0.35474000  0.70322000  1.0
  H  H33  1  0.73338000  0.54369000  0.73587000  1.0
  H  H34  1  0.80194000  0.71040000  0.69651000  1.0
  H  H35  1  0.96173000  0.93223000  0.28845000  1.0
  H  H36  1  0.05502000  0.00565000  0.35336000  1.0
  H  H37  1  0.67279000  0.05228000  0.40328000  1.0
  H  H38  1  0.58134000  0.97798000  0.33817000  1.0
  H  H39  1  0.79336000  0.02524000  0.22733000  1.0
  H  H40  1  0.50762000  0.77941000  0.21170000  1.0
  H  H41  1  0.58113000  0.78100000  0.29463000  1.0
  H  H42  1  0.74938000  0.09015000  0.45910000  1.0
  H  H43  1  0.13610000  0.16384000  0.48740000  1.0
  H  H44  1  0.12608000  0.08906000  0.40653000  1.0
  H  H45  1  0.75741000  0.42429000  0.46044000  1.0
  H  H46  1  0.99552000  0.41612000  0.46555000  1.0
  H  H47  1  0.13457000  0.30057000  0.32959000  1.0
  H  H48  1  0.02682000  0.23600000  0.26589000  1.0
  H  H49  1  0.78619000  0.22218000  0.26410000  1.0
  H  H50  1  0.66069000  0.28124000  0.32503000  1.0
  H  H51  1  0.47919000  0.72257000  0.43844000  1.0
  H  H52  1  0.50944000  0.91221000  0.46944000  1.0
  H  H53  1  0.33281000  0.16577000  0.36813000  1.0
  H  H54  1  0.25116000  0.14528000  0.29676000  1.0
  H  H55  1  0.23343000  0.95629000  0.26415000  1.0
  H  H56  1  0.30193000  0.78955000  0.30357000  1.0
  H  H57  1  0.46164000  0.56790000  0.71165000  1.0
  H  H58  1  0.55513000  0.49449000  0.64676000  1.0
  H  H59  1  0.17290000  0.44779000  0.59682000  1.0
  H  H60  1  0.08140000  0.52216000  0.66192000  1.0
  H  H61  1  0.29324000  0.47470000  0.77274000  1.0
  H  H62  1  0.00737000  0.72079000  0.78838000  1.0
  H  H63  1  0.08096000  0.71931000  0.70545000  1.0
  H  H64  1  0.24944000  0.40960000  0.54094000  1.0
  H  H65  1  0.63649000  0.33620000  0.51273000  1.0
  H  H66  1  0.62623000  0.41108000  0.59352000  1.0
  H  H67  1  0.74153000  0.57575000  0.96052000  1.0
  H  H68  1  0.50342000  0.58425000  0.96551000  1.0
  H  H69  1  0.36469000  0.69966000  0.82939000  1.0
  H  H70  1  0.47270000  0.76432000  0.76575000  1.0
  H  H71  1  0.71349000  0.77805000  0.76414000  1.0
  H  H72  1  0.83859000  0.71865000  0.82517000  1.0
  H  H73  1  0.02022000  0.27743000  0.93849000  1.0
  H  H74  1  0.99059000  0.08793000  0.96976000  1.0
  H  H75  1  0.16695000  0.83393000  0.86852000  1.0
  H  H76  1  0.24831000  0.85437000  0.79716000  1.0
  H  H77  1  0.26612000  0.04327000  0.76443000  1.0
  H  H78  1  0.19777000  0.21006000  0.80378000  1.0
  H  H79  1  0.03871000  0.43227000  0.21163000  1.0
  H  H80  1  0.94529000  0.50575000  0.14668000  1.0
  H  H81  1  0.32758000  0.55224000  0.09679000  1.0
  H  H82  1  0.41897000  0.47795000  0.16199000  1.0
  H  H83  1  0.20690000  0.52530000  0.27266000  1.0
  H  H84  1  0.49250000  0.27905000  0.28851000  1.0
  H  H85  1  0.41924000  0.28072000  0.20552000  1.0
  H  H86  1  0.25091000  0.59017000  0.04084000  1.0
  H  H87  1  0.86385000  0.66383000  0.01265000  1.0
  H  H88  1  0.87424000  0.58911000  0.09352000  1.0
  C  C1  1  0.24833000  0.86700000  0.10213000  1.0
  C  C2  1  0.18433000  0.89684000  0.06589000  1.0
  C  C3  1  0.05003000  0.89473000  0.06344000  1.0
  C  C4  1  0.97538000  0.86615000  0.09759000  1.0
  C  C5  1  0.03684000  0.83199000  0.13573000  1.0
  C  C6  1  0.96807000  0.79758000  0.17185000  1.0
  C  C7  1  0.02974000  0.76092000  0.20731000  1.0
  C  C8  1  0.16466000  0.75386000  0.20826000  1.0
  C  C9  1  0.23498000  0.78696000  0.17410000  1.0
  C  C10  1  0.17561000  0.82952000  0.13749000  1.0
  C  C11  1  0.39151000  0.88108000  0.10228000  1.0
  C  C12  1  0.83290000  0.87108000  0.09144000  1.0
  C  C13  1  0.59908000  0.28501000  0.11834000  1.0
  C  C14  1  0.55009000  0.29661000  0.07850000  1.0
  C  C15  1  0.53483000  0.40301000  0.06070000  1.0
  C  C16  1  0.57530000  0.49817000  0.08133000  1.0
  C  C17  1  0.63198000  0.48928000  0.12192000  1.0
  C  C18  1  0.67240000  0.58368000  0.14544000  1.0
  C  C19  1  0.71946000  0.57188000  0.18539000  1.0
  C  C20  1  0.72992000  0.46530000  0.20390000  1.0
  C  C21  1  0.69205000  0.37202000  0.18201000  1.0
  C  C22  1  0.64140000  0.38071000  0.14100000  1.0
  C  C23  1  0.59738000  0.17145000  0.13781000  1.0
  C  C24  1  0.55325000  0.60839000  0.06020000  1.0
  C  C25  1  0.73456000  0.04925000  0.80955000  1.0
  C  C26  1  0.60152000  0.04100000  0.81360000  1.0
  C  C27  1  0.54916000  0.99964000  0.85047000  1.0
  C  C28  1  0.63035000  0.96668000  0.88294000  1.0
  C  C29  1  0.76385000  0.97495000  0.87857000  1.0
  C  C30  1  0.81565000  0.01662000  0.84194000  1.0
  C  C31  1  0.77355000  0.04193000  0.73342000  1.0
  C  C32  1  0.92210000  0.16940000  0.72729000  1.0
  C  C33  1  0.88620000  0.16937000  0.76835000  1.0
  C  C34  1  0.64769000  0.90199000  0.95615000  1.0
  C  C35  1  0.44544000  0.86550000  0.96953000  1.0
  C  C36  1  0.44993000  0.90212000  0.92931000  1.0
  C  C37  1  0.25150000  0.13287000  0.60211000  1.0
  C  C38  1  0.31540000  0.10298000  0.56588000  1.0
  C  C39  1  0.44968000  0.10517000  0.56339000  1.0
  C  C40  1  0.52447000  0.13378000  0.59752000  1.0
  C  C41  1  0.46305000  0.16794000  0.63565000  1.0
  C  C42  1  0.53182000  0.20237000  0.67177000  1.0
  C  C43  1  0.47008000  0.23896000  0.70722000  1.0
  C  C44  1  0.33516000  0.24603000  0.70816000  1.0
  C  C45  1  0.26487000  0.21295000  0.67400000  1.0
  C  C46  1  0.32428000  0.17040000  0.63743000  1.0
  C  C47  1  0.10835000  0.11887000  0.60226000  1.0
  C  C48  1  0.66698000  0.12891000  0.59138000  1.0
  C  C49  1  0.90035000  0.71513000  0.61854000  1.0
  C  C50  1  0.94917000  0.70339000  0.57869000  1.0
  C  C51  1  0.96429000  0.59694000  0.56099000  1.0
  C  C52  1  0.92352000  0.50198000  0.58173000  1.0
  C  C53  1  0.86704000  0.51101000  0.62229000  1.0
  C  C54  1  0.82678000  0.41657000  0.64585000  1.0
  C  C55  1  0.77994000  0.42842000  0.68581000  1.0
  C  C56  1  0.76962000  0.53505000  0.70425000  1.0
  C  C57  1  0.80752000  0.62831000  0.68232000  1.0
  C  C58  1  0.85792000  0.61958000  0.64129000  1.0
  C  C59  1  0.90243000  0.82867000  0.63794000  1.0
  C  C60  1  0.94635000  0.39156000  0.56097000  1.0
  C  C61  1  0.76577000  0.95066000  0.30955000  1.0
  C  C62  1  0.89884000  0.95887000  0.31360000  1.0
  C  C63  1  0.95131000  0.00021000  0.35045000  1.0
  C  C64  1  0.87022000  0.03322000  0.38291000  1.0
  C  C65  1  0.73671000  0.02494000  0.37856000  1.0
  C  C66  1  0.68480000  0.98328000  0.34195000  1.0
  C  C67  1  0.72656000  0.95813000  0.23340000  1.0
  C  C68  1  0.57796000  0.83071000  0.22732000  1.0
  C  C69  1  0.61395000  0.83067000  0.26837000  1.0
  C  C70  1  0.85284000  0.09812000  0.45608000  1.0
  C  C71  1  0.05505000  0.13459000  0.46952000  1.0
  C  C72  1  0.05063000  0.09785000  0.42932000  1.0
  C  C73  1  0.74966000  0.36675000  0.39769000  1.0
  C  C74  1  0.81368000  0.39669000  0.43391000  1.0
  C  C75  1  0.94801000  0.39456000  0.43652000  1.0
  C  C76  1  0.02321000  0.36596000  0.40248000  1.0
  C  C77  1  0.96174000  0.33181000  0.36433000  1.0
  C  C78  1  0.03099000  0.29765000  0.32829000  1.0
  C  C79  1  0.96995000  0.26113000  0.29273000  1.0
  C  C80  1  0.83509000  0.25387000  0.29161000  1.0
  C  C81  1  0.76419000  0.28672000  0.32569000  1.0
  C  C82  1  0.82286000  0.32920000  0.36241000  1.0
  C  C83  1  0.60633000  0.38052000  0.39773000  1.0
  C  C84  1  0.16604000  0.37104000  0.40864000  1.0
  C  C85  1  0.40029000  0.78481000  0.38157000  1.0
  C  C86  1  0.44919000  0.79659000  0.42142000  1.0
  C  C87  1  0.46428000  0.90309000  0.43909000  1.0
  C  C88  1  0.42348000  0.99810000  0.41835000  1.0
  C  C89  1  0.36704000  0.98903000  0.37777000  1.0
  C  C90  1  0.32684000  0.08346000  0.35416000  1.0
  C  C91  1  0.27998000  0.07160000  0.31420000  1.0
  C  C92  1  0.26965000  0.96494000  0.29578000  1.0
  C  C93  1  0.30751000  0.87166000  0.31775000  1.0
  C  C94  1  0.35789000  0.88040000  0.35879000  1.0
  C  C95  1  0.40251000  0.67124000  0.36217000  1.0
  C  C96  1  0.44638000  0.10863000  0.43905000  1.0
  C  C97  1  0.26576000  0.54946000  0.69054000  1.0
  C  C98  1  0.39883000  0.54123000  0.68649000  1.0
  C  C99  1  0.45138000  0.49987000  0.64964000  1.0
  C  C100  1  0.37033000  0.46681000  0.61717000  1.0
  C  C101  1  0.23682000  0.47511000  0.62154000  1.0
  C  C102  1  0.18485000  0.51682000  0.65814000  1.0
  C  C103  1  0.22639000  0.54186000  0.76666000  1.0
  C  C104  1  0.07770000  0.66943000  0.77274000  1.0
  C  C105  1  0.11379000  0.66954000  0.73170000  1.0
  C  C106  1  0.35294000  0.40176000  0.54398000  1.0
  C  C107  1  0.55525000  0.36541000  0.53055000  1.0
  C  C108  1  0.55075000  0.40217000  0.57074000  1.0
  C  C109  1  0.74959000  0.63355000  0.89775000  1.0
  C  C110  1  0.68549000  0.60346000  0.93395000  1.0
  C  C111  1  0.55117000  0.60546000  0.93647000  1.0
  C  C112  1  0.47613000  0.63390000  0.90238000  1.0
  C  C113  1  0.53746000  0.66813000  0.86423000  1.0
  C  C114  1  0.46828000  0.70243000  0.82815000  1.0
  C  C115  1  0.52948000  0.73904000  0.79261000  1.0
  C  C116  1  0.66436000  0.74621000  0.79158000  1.0
  C  C117  1  0.73508000  0.71331000  0.82571000  1.0
  C  C118  1  0.67631000  0.67087000  0.86241000  1.0
  C  C119  1  0.89303000  0.61983000  0.89784000  1.0
  C  C120  1  0.33350000  0.62890000  0.90853000  1.0
  C  C121  1  0.09930000  0.21499000  0.88171000  1.0
  C  C122  1  0.05030000  0.20336000  0.92155000  1.0
  C  C123  1  0.03526000  0.09694000  0.93933000  1.0
  C  C124  1  0.07570000  0.00175000  0.91868000  1.0
  C  C125  1  0.13238000  0.01064000  0.87810000  1.0
  C  C126  1  0.17275000  0.91624000  0.85453000  1.0
  C  C127  1  0.21962000  0.92808000  0.81456000  1.0
  C  C128  1  0.22998000  0.03469000  0.79607000  1.0
  C  C129  1  0.19221000  0.12797000  0.81801000  1.0
  C  C130  1  0.14172000  0.11926000  0.85904000  1.0
  C  C131  1  0.09722000  0.32860000  0.86224000  1.0
  C  C132  1  0.05328000  0.89148000  0.93974000  1.0
  C  C133  1  0.23456000  0.45064000  0.19052000  1.0
  C  C134  1  0.10151000  0.45892000  0.18647000  1.0
  C  C135  1  0.04901000  0.50032000  0.14960000  1.0
  C  C136  1  0.13012000  0.53331000  0.11713000  1.0
  C  C137  1  0.26364000  0.52503000  0.12152000  1.0
  C  C138  1  0.31554000  0.48331000  0.15815000  1.0
  C  C139  1  0.27363000  0.45805000  0.26663000  1.0
  C  C140  1  0.42224000  0.33043000  0.27282000  1.0
  C  C141  1  0.38638000  0.33043000  0.23176000  1.0
  C  C142  1  0.14740000  0.59810000  0.04392000  1.0
  C  C143  1  0.94505000  0.63456000  0.03050000  1.0
  C  C144  1  0.94963000  0.59790000  0.07071000  1.0
  N  N1  1  0.79134000  0.08824000  0.77175000  1.0
  N  N2  1  0.85189000  0.08968000  0.70596000  1.0
  N  N3  1  0.57860000  0.92517000  0.92088000  1.0
  N  N4  1  0.56873000  0.86631000  0.98582000  1.0
  N  N5  1  0.70885000  0.91177000  0.27175000  1.0
  N  N6  1  0.64815000  0.91045000  0.20596000  1.0
  N  N7  1  0.92198000  0.07478000  0.42085000  1.0
  N  N8  1  0.93171000  0.13389000  0.48577000  1.0
  N  N9  1  0.20877000  0.58837000  0.72832000  1.0
  N  N10  1  0.14788000  0.58953000  0.79409000  1.0
  N  N11  1  0.42206000  0.42518000  0.57921000  1.0
  N  N12  1  0.43190000  0.36602000  0.51429000  1.0
  N  N13  1  0.29145000  0.41164000  0.22832000  1.0
  N  N14  1  0.35196000  0.41029000  0.29411000  1.0
  N  N15  1  0.07833000  0.57486000  0.07917000  1.0
  N  N16  1  0.06836000  0.63378000  0.01424000  1.0
  O  O1  1  0.44838000  0.88836000  0.13750000  1.0
  O  O2  1  0.44748000  0.88946000  0.06716000  1.0
  O  O3  1  0.75885000  0.85517000  0.12265000  1.0
  O  O4  1  0.79112000  0.88890000  0.05460000  1.0
  O  O5  1  0.65510000  0.09344000  0.11682000  1.0
  O  O6  1  0.53991000  0.15543000  0.17155000  1.0
  O  O7  1  0.44936000  0.62738000  0.04195000  1.0
  O  O8  1  0.64890000  0.67791000  0.06246000  1.0
  O  O9  1  0.05152000  0.11161000  0.63749000  1.0
  O  O10  1  0.05243000  0.11053000  0.56714000  1.0
  O  O11  1  0.74101000  0.14477000  0.62260000  1.0
  O  O12  1  0.70880000  0.11115000  0.55454000  1.0
  O  O13  1  0.84489000  0.90673000  0.61688000  1.0
  O  O14  1  0.95993000  0.84463000  0.67169000  1.0
  O  O15  1  0.05167000  0.37237000  0.54368000  1.0
  O  O16  1  0.85060000  0.32213000  0.56248000  1.0
  O  O17  1  0.54724000  0.38150000  0.36273000  1.0
  O  O18  1  0.55151000  0.39465000  0.43281000  1.0
  O  O19  1  0.24014000  0.35543000  0.37741000  1.0
  O  O20  1  0.20810000  0.38873000  0.44546000  1.0
  O  O21  1  0.34493000  0.59315000  0.38315000  1.0
  O  O22  1  0.46028000  0.65532000  0.32847000  1.0
  O  O23  1  0.55171000  0.12776000  0.45633000  1.0
  O  O24  1  0.35074000  0.17829000  0.43748000  1.0
  O  O25  1  0.95196000  0.61828000  0.86281000  1.0
  O  O26  1  0.94800000  0.60590000  0.93292000  1.0
  O  O27  1  0.25951000  0.64467000  0.87728000  1.0
  O  O28  1  0.29152000  0.61116000  0.94535000  1.0
  O  O29  1  0.15476000  0.40669000  0.88321000  1.0
  O  O30  1  0.03959000  0.34459000  0.82852000  1.0
  O  O31  1  0.94920000  0.87264000  0.95788000  1.0
  O  O32  1  0.14877000  0.82170000  0.93754000  1.0
