# generated using pymatgen
data_H14C33(N3O2)2
_symmetry_space_group_name_H-M   'P 1'
_cell_length_a   12.55450000
_cell_length_b   12.55455000
_cell_length_c   25.10900000
_cell_angle_alpha   89.99830000
_cell_angle_beta   90.00170000
_cell_angle_gamma   90.00000000
_symmetry_Int_Tables_number   1
_chemical_formula_structural   H14C33(N3O2)2
_chemical_formula_sum   'H28 C66 N12 O8'
_cell_volume   3957.58260057
_cell_formula_units_Z   2
loop_
 _symmetry_equiv_pos_site_id
 _symmetry_equiv_pos_as_xyz
  1  'x, y, z'
loop_
 _atom_site_type_symbol
 _atom_site_label
 _atom_site_symmetry_multiplicity
 _atom_site_fract_x
 _atom_site_fract_y
 _atom_site_fract_z
 _atom_site_occupancy
  C  1  1  0.04158700  0.02228900  0.05145900  1
  C  2  1  0.93595900  0.02428700  0.03361900  1
  C  3  1  0.93515500  0.02667800  0.97815400  1
  C  4  1  0.04020800  0.02456000  0.95973400  1
  C  5  1  0.06109900  0.02588800  0.90434400  1
  C  6  1  0.97609800  0.03112200  0.86694700  1
  C  7  1  0.87033700  0.03280100  0.88720300  1
  C  8  1  0.84933500  0.03047200  0.94228600  1
  C  9  1  0.85070100  0.02253300  0.06984800  1
  C  10  1  0.87276900  0.01780100  0.12474800  1
  C  11  1  0.97895500  0.01638800  0.14428000  1
  C  12  1  0.06368700  0.01909900  0.10673600  1
  C  13  1  0.19161100  0.93186000  0.00411000  1
  C  14  1  0.29639600  0.96946800  0.00127300  1
  C  15  1  0.29539200  0.07987500  0.00144800  1
  C  16  1  0.18998700  0.11518100  0.00479800  1
  C  17  1  0.38079600  0.15186800  0.99992300  1
  C  18  1  0.35882000  0.26142100  0.00226100  1
  C  19  1  0.25278500  0.30049900  0.00625100  1
  C  20  1  0.16799200  0.22559700  0.00708100  1
  C  21  1  0.17224800  0.82086800  0.00646700  1
  C  22  1  0.25911900  0.74836200  0.00763000  1
  C  23  1  0.36418900  0.78960600  0.00314100  1
  C  24  1  0.38350700  0.89953400  0.00004600  1
  C  37  1  0.11580600  0.02293600  0.00529900  1
  C  38  1  0.02675200  0.03943300  0.55109600  1
  C  39  1  0.03016000  0.93299600  0.53459600  1
  C  40  1  0.02828900  0.92944200  0.47917400  1
  C  41  1  0.02556000  0.03355200  0.45934900  1
  C  42  1  0.02263500  0.05142900  0.40366000  1
  C  43  1  0.01938200  0.96396200  0.36775800  1
  C  44  1  0.02281800  0.85934600  0.38929300  1
  C  45  1  0.02775900  0.84150800  0.44457300  1
  C  46  1  0.03382800  0.84958900  0.57188200  1
  C  47  1  0.03502000  0.87436200  0.62653900  1
  C  48  1  0.03266900  0.98146100  0.64462900  1
  C  49  1  0.02658900  0.06419200  0.60611300  1
  C  50  1  0.11498900  0.18763700  0.50228500  1
  C  51  1  0.07696500  0.29210200  0.49864100  1
  C  52  1  0.96656500  0.29037900  0.49851000  1
  C  53  1  0.93165800  0.18487200  0.50254400  1
  C  54  1  0.89436800  0.37552700  0.49631900  1
  C  55  1  0.78492400  0.35333800  0.49887600  1
  C  56  1  0.74607900  0.24736900  0.50377100  1
  C  57  1  0.82123200  0.16271300  0.50504900  1
  C  58  1  0.22597100  0.16863100  0.50495800  1
  C  59  1  0.29820800  0.25566600  0.50559900  1
  C  60  1  0.25668500  0.36050800  0.50047300  1
  C  61  1  0.14667600  0.37940100  0.49704800  1
  C  74  1  0.02451300  0.11132800  0.50401400  1
  C  75  1  0.02919900  0.00285200  0.70037700  1
  C  77  1  0.92858300  0.07768400  0.77243100  1
  C  78  1  0.99542600  0.02881600  0.81070000  1
  C  80  1  0.09966500  0.95698200  0.73816500  1
  C  85  1  0.99631000  0.00625200  0.20027900  1
  C  87  1  0.94133500  0.91616800  0.28006300  1
  C  88  1  0.01025200  0.97891600  0.31154500  1
  C  90  1  0.06590800  0.07007000  0.23135900  1
  C  95  1  0.23706800  0.41269300  0.01051300  1
  C  97  1  0.31301200  0.57408100  0.04472300  1
  C  98  1  0.24438100  0.63640300  0.01294400  1
  C  100  1  0.16223000  0.47429400  0.98136800  1
  C  105  1  0.63385600  0.23197700  0.50851000  1
  C  107  1  0.47286500  0.31024300  0.54204800  1
  C  108  1  0.41012800  0.24087000  0.51091600  1
  C  110  1  0.57172600  0.15659000  0.48002600  1
  H  25  1  0.42863100  0.73975100  0.00205000  1
  H  26  1  0.45985100  0.92743200  0.99784400  1
  H  27  1  0.45774200  0.12576600  0.99751400  1
  H  28  1  0.42209600  0.31277400  0.00086300  1
  H  29  1  0.09083500  0.25028900  0.01101900  1
  H  30  1  0.09566900  0.79393100  0.00981300  1
  H  31  1  0.13849400  0.02462700  0.89164700  1
  H  32  1  0.80647700  0.03259700  0.86194100  1
  H  33  1  0.77252400  0.03100500  0.95574800  1
  H  34  1  0.14113200  0.01490800  0.11913900  1
  H  35  1  0.77362700  0.02330900  0.05676800  1
  H  36  1  0.80971300  0.01595200  0.15057800  1
  H  62  1  0.30639400  0.42503200  0.49903600  1
  H  63  1  0.11856100  0.45558600  0.49424000  1
  H  64  1  0.92026300  0.45248200  0.49345200  1
  H  65  1  0.73347600  0.41650300  0.49708800  1
  H  66  1  0.79673900  0.08565800  0.50972100  1
  H  67  1  0.25308600  0.09220500  0.50883300  1
  H  68  1  0.01888100  0.12787900  0.38970800  1
  H  69  1  0.02265000  0.79433100  0.36472700  1
  H  70  1  0.02972600  0.76548600  0.45908600  1
  H  71  1  0.02387600  0.14220300  0.61777400  1
  H  72  1  0.03502900  0.77189900  0.55976300  1
  H  73  1  0.03502600  0.81267700  0.65316700  1
  H  81  1  0.86475500  0.12306900  0.78336400  1
  H  91  1  0.89266000  0.85984800  0.29650700  1
  H  101  1  0.37030600  0.60745400  0.06832400  1
  H  111  1  0.43987100  0.36856900  0.56514300  1
  N  76  1  0.94707600  0.06196200  0.71972100  1
  N  79  1  0.07891700  0.97193400  0.79101800  1
  N  82  1  0.18940600  0.89773800  0.72201100  1
  N  86  1  0.93677100  0.93291400  0.22684600  1
  N  89  1  0.06881100  0.05375100  0.28528700  1
  N  92  1  0.12755600  0.15112400  0.20780100  1
  N  96  1  0.30785800  0.46693200  0.04123500  1
  N  99  1  0.17091000  0.58297200  0.98327600  1
  N  102  1  0.08643600  0.42587400  0.94783400  1
  N  106  1  0.57998000  0.30420600  0.53857900  1
  N  109  1  0.46311200  0.16602900  0.48191000  1
  N  112  1  0.61953900  0.07938600  0.44709400  1
  O  83  1  0.18549800  0.80519200  0.74090500  1
  O  84  1  0.27310600  0.94123100  0.73861900  1
  O  93  1  0.22468600  0.13524300  0.21671200  1
  O  94  1  0.10308300  0.24015400  0.22700400  1
  O  103  1  0.09965700  0.45465600  0.90040500  1
  O  104  1  0.99421300  0.45251800  0.96186900  1
  O  113  1  0.59067800  0.09128800  0.39958500  1
  O  114  1  0.59220200  0.98783600  0.46188600  1
