# generated using pymatgen
data_Zn3H34(C22O5)2
_symmetry_space_group_name_H-M   'P 1'
_cell_length_a   4.88341000
_cell_length_b   19.81111000
_cell_length_c   19.82518000
_cell_angle_alpha   80.53626000
_cell_angle_beta   85.21882000
_cell_angle_gamma   85.21040000
_symmetry_Int_Tables_number   1
_chemical_formula_structural   Zn3H34(C22O5)2
_chemical_formula_sum   'Zn3 H34 C44 O10'
_cell_volume   1880.55657319
_cell_formula_units_Z   1
loop_
 _symmetry_equiv_pos_site_id
 _symmetry_equiv_pos_as_xyz
  1  'x, y, z'
loop_
 _atom_site_type_symbol
 _atom_site_label
 _atom_site_symmetry_multiplicity
 _atom_site_fract_x
 _atom_site_fract_y
 _atom_site_fract_z
 _atom_site_occupancy
  Zn  Zn0  1  0.49763000  0.00094000  0.99838000  1
  Zn  Zn1  1  0.99362000  0.93403000  0.06529000  1
  Zn  Zn2  1  0.00600000  0.06610000  0.93475000  1
  H  H3  1  0.82716000  0.91497000  0.28711000  1
  H  H4  1  0.60768000  0.93053000  0.40318000  1
  H  H5  1  0.92085000  0.04810000  0.31038000  1
  H  H6  1  0.13832000  0.03202000  0.19452000  1
  H  H7  1  0.06183000  0.10069000  0.55343000  1
  H  H8  1  0.35494000  0.14863000  0.45554000  1
  H  H9  1  0.60076000  0.07752000  0.45245000  1
  H  H10  1  0.40774000  0.10907000  0.38044000  1
  H  H11  1  0.17318000  0.71280000  0.08525000  1
  H  H12  1  0.39197000  0.59676000  0.06909000  1
  H  H13  1  0.07900000  0.68958000  0.95198000  1
  H  H14  1  0.86361000  0.80558000  0.96905000  1
  H  H15  1  0.93902000  0.44643000  0.89933000  1
  H  H16  1  0.64591000  0.54439000  0.85138000  1
  H  H17  1  0.39961000  0.54756000  0.92235000  1
  H  H18  1  0.59317000  0.61957000  0.89091000  1
  H  H19  1  0.17258000  0.08503000  0.71270000  1
  H  H20  1  0.39213000  0.06946000  0.59665000  1
  H  H21  1  0.07890000  0.95195000  0.68941000  1
  H  H22  1  0.86192000  0.96795000  0.80529000  1
  H  H23  1  0.93802000  0.89931000  0.44643000  1
  H  H24  1  0.64535000  0.85136000  0.54428000  1
  H  H25  1  0.39927000  0.92242000  0.54738000  1
  H  H26  1  0.59235000  0.89087000  0.61941000  1
  H  H27  1  0.82785000  0.28753000  0.91461000  1
  H  H28  1  0.60830000  0.40347000  0.93085000  1
  H  H29  1  0.92212000  0.31033000  0.04807000  1
  H  H30  1  0.13796000  0.19440000  0.03078000  1
  H  H31  1  0.06142000  0.55362000  0.10061000  1
  H  H32  1  0.35396000  0.45572000  0.14861000  1
  H  H33  1  0.60048000  0.45253000  0.07769000  1
  H  H34  1  0.40701000  0.38049000  0.10916000  1
  H  H35  1  0.83402000  0.93990000  0.93585000  1
  H  H36  1  0.16833000  0.05975000  0.06448000  1
  C  C37  1  0.63176000  0.96995000  0.16438000  1
  C  C38  1  0.50170000  0.97680000  0.23358000  1
  C  C39  1  0.63639000  0.94641000  0.29261000  1
  C  C40  1  0.50536000  0.95211000  0.35711000  1
  C  C41  1  0.24997000  0.98740000  0.36439000  1
  C  C42  1  0.11326000  0.01705000  0.30553000  1
  C  C43  1  0.24213000  0.01124000  0.24059000  1
  C  C44  1  0.12803000  0.99437000  0.43458000  1
  C  C45  1  0.17820000  0.05093000  0.46574000  1
  C  C46  1  0.03595000  0.05620000  0.52945000  1
  C  C47  1  0.39278000  0.09937000  0.43668000  1
  C  C48  1  0.37261000  0.83565000  0.03227000  1
  C  C49  1  0.50025000  0.76641000  0.02418000  1
  C  C50  1  0.36403000  0.70738000  0.05384000  1
  C  C51  1  0.49439000  0.64287000  0.04775000  1
  C  C52  1  0.74968000  0.63560000  0.01250000  1
  C  C53  1  0.88685000  0.69447000  0.98306000  1
  C  C54  1  0.75931000  0.75946000  0.98946000  1
  C  C55  1  0.87165000  0.56537000  0.00557000  1
  C  C56  1  0.82206000  0.53416000  0.94905000  1
  C  C57  1  0.96463000  0.47043000  0.94380000  1
  C  C58  1  0.60776000  0.56329000  0.90058000  1
  C  C59  1  0.36808000  0.03027000  0.83532000  1
  C  C60  1  0.49833000  0.02332000  0.76621000  1
  C  C61  1  0.36354000  0.05366000  0.70720000  1
  C  C62  1  0.49457000  0.04796000  0.64271000  1
  C  C63  1  0.74989000  0.01265000  0.63545000  1
  C  C64  1  0.88657000  0.98301000  0.69431000  1
  C  C65  1  0.75787000  0.98881000  0.75927000  1
  C  C66  1  0.87188000  0.00563000  0.56528000  1
  C  C67  1  0.82172000  0.94907000  0.53413000  1
  C  C68  1  0.96391000  0.94381000  0.47041000  1
  C  C69  1  0.60726000  0.90060000  0.56318000  1
  C  C70  1  0.62723000  0.16466000  0.96682000  1
  C  C71  1  0.50062000  0.23378000  0.97551000  1
  C  C72  1  0.63699000  0.29285000  0.94603000  1
  C  C73  1  0.50628000  0.35730000  0.95221000  1
  C  C74  1  0.25095000  0.36445000  0.98748000  1
  C  C75  1  0.11419000  0.30552000  0.01694000  1
  C  C76  1  0.24184000  0.24059000  0.01038000  1
  C  C77  1  0.12862000  0.43466000  0.99440000  1
  C  C78  1  0.17813000  0.46586000  0.05094000  1
  C  C79  1  0.03566000  0.52959000  0.05616000  1
  C  C80  1  0.39235000  0.43678000  0.09944000  1
  O  O81  1  0.51485000  0.00001000  0.11142000  1
  O  O82  1  0.86003000  0.93266000  0.16171000  1
  O  O83  1  0.49840000  0.88834000  0.00545000  1
  O  O84  1  0.13898000  0.83837000  0.06723000  1
  O  O85  1  0.48590000  0.00022000  0.88820000  1
  O  O86  1  0.13955000  0.06732000  0.83821000  1
  O  O87  1  0.49947000  0.11193000  0.99266000  1
  O  O88  1  0.86211000  0.16184000  0.93255000  1
  O  O89  1  0.11171000  0.03112000  0.03345000  1
  O  O90  1  0.88757000  0.96920000  0.96666000  1
