# generated using pymatgen
data_MnH16C24(NO2)2
_symmetry_space_group_name_H-M   'P 1'
_cell_length_a   8.63969000
_cell_length_b   12.24308000
_cell_length_c   12.24344000
_cell_angle_alpha   73.20391000
_cell_angle_beta   74.76329000
_cell_angle_gamma   74.76332000
_symmetry_Int_Tables_number   1
_chemical_formula_structural   MnH16C24(NO2)2
_chemical_formula_sum   'Mn2 H32 C48 N4 O8'
_cell_volume   1171.50236444
_cell_formula_units_Z   2
loop_
 _symmetry_equiv_pos_site_id
 _symmetry_equiv_pos_as_xyz
  1  'x, y, z'
loop_
 _atom_site_type_symbol
 _atom_site_label
 _atom_site_symmetry_multiplicity
 _atom_site_fract_x
 _atom_site_fract_y
 _atom_site_fract_z
 _atom_site_occupancy
  Mn  Mn1  1  0.75001000  0.57865000  0.42135000  1.0
  Mn  Mn2  1  0.25000000  0.42135000  0.57865000  1.0
  H  H1  1  0.31937000  0.33526000  0.32824000  1.0
  H  H2  1  0.32423000  0.24020000  0.17138000  1.0
  H  H3  1  0.54715000  0.25364000  0.99481000  1.0
  H  H4  1  0.75848000  0.45329000  0.13422000  1.0
  H  H5  1  0.65631000  0.37636000  0.82463000  1.0
  H  H6  1  0.88464000  0.39764000  0.65317000  1.0
  H  H7  1  0.21189000  0.36942000  0.85807000  1.0
  H  H8  1  0.99512000  0.35136000  0.03897000  1.0
  H  H9  1  0.18064000  0.67176000  0.66473000  1.0
  H  H10  1  0.17578000  0.82862000  0.75980000  1.0
  H  H11  1  0.95286000  0.00520000  0.74636000  1.0
  H  H12  1  0.74154000  0.86578000  0.54671000  1.0
  H  H13  1  0.84370000  0.17538000  0.62364000  1.0
  H  H14  1  0.61536000  0.34684000  0.60235000  1.0
  H  H15  1  0.28812000  0.14193000  0.63058000  1.0
  H  H16  1  0.50490000  0.96103000  0.64864000  1.0
  H  H17  1  0.68064000  0.66474000  0.67176000  1.0
  H  H18  1  0.67578000  0.75980000  0.82862000  1.0
  H  H19  1  0.45286000  0.74636000  0.00519000  1.0
  H  H20  1  0.24153000  0.54671000  0.86578000  1.0
  H  H21  1  0.34370000  0.62364000  0.17537000  1.0
  H  H22  1  0.11537000  0.60235000  0.34683000  1.0
  H  H23  1  0.78812000  0.63058000  0.14193000  1.0
  H  H24  1  0.00489000  0.64864000  0.96103000  1.0
  H  H25  1  0.81937000  0.32824000  0.33526000  1.0
  H  H26  1  0.82423000  0.17138000  0.24020000  1.0
  H  H27  1  0.04715000  0.99480000  0.25364000  1.0
  H  H28  1  0.25847000  0.13422000  0.45328000  1.0
  H  H29  1  0.15631000  0.82462000  0.37636000  1.0
  H  H30  1  0.38465000  0.65316000  0.39765000  1.0
  H  H31  1  0.71189000  0.85807000  0.36942000  1.0
  H  H32  1  0.49511000  0.03897000  0.35136000  1.0
  C  C1  1  0.52883000  0.46322000  0.33073000  1.0
  C  C2  1  0.53770000  0.40045000  0.23953000  1.0
  C  C3  1  0.41551000  0.33984000  0.25031000  1.0
  C  C4  1  0.41922000  0.28754000  0.16209000  1.0
  C  C5  1  0.54452000  0.29528000  0.06290000  1.0
  C  C6  1  0.67001000  0.35394000  0.05168000  1.0
  C  C7  1  0.66458000  0.40608000  0.14104000  1.0
  C  C8  1  0.80466000  0.36164000  0.94813000  1.0
  C  C9  1  0.77789000  0.37232000  0.83703000  1.0
  C  C10  1  0.90545000  0.38395000  0.74048000  1.0
  C  C11  1  0.08677000  0.37036000  0.85493000  1.0
  C  C12  1  0.96492000  0.36076000  0.95541000  1.0
  C  C13  1  0.97118000  0.66927000  0.53678000  1.0
  C  C14  1  0.96231000  0.76047000  0.59955000  1.0
  C  C15  1  0.08450000  0.74968000  0.66016000  1.0
  C  C16  1  0.08079000  0.83791000  0.71246000  1.0
  C  C17  1  0.95549000  0.93710000  0.70472000  1.0
  C  C18  1  0.83000000  0.94832000  0.64606000  1.0
  C  C19  1  0.83543000  0.85896000  0.59392000  1.0
  C  C20  1  0.69535000  0.05187000  0.63836000  1.0
  C  C21  1  0.72211000  0.16297000  0.62768000  1.0
  C  C22  1  0.59456000  0.25952000  0.61605000  1.0
  C  C23  1  0.41323000  0.14507000  0.62964000  1.0
  C  C24  1  0.53509000  0.04459000  0.63923000  1.0
  C  C25  1  0.47118000  0.53678000  0.66927000  1.0
  C  C26  1  0.46231000  0.59955000  0.76047000  1.0
  C  C27  1  0.58450000  0.66016000  0.74968000  1.0
  C  C28  1  0.58079000  0.71246000  0.83791000  1.0
  C  C29  1  0.45548000  0.70472000  0.93710000  1.0
  C  C30  1  0.33000000  0.64606000  0.94831000  1.0
  C  C31  1  0.33543000  0.59392000  0.85896000  1.0
  C  C32  1  0.19535000  0.63836000  0.05187000  1.0
  C  C33  1  0.22211000  0.62768000  0.16296000  1.0
  C  C34  1  0.09456000  0.61605000  0.25952000  1.0
  C  C35  1  0.91324000  0.62964000  0.14507000  1.0
  C  C36  1  0.03509000  0.63924000  0.04459000  1.0
  C  C37  1  0.02883000  0.33073000  0.46322000  1.0
  C  C38  1  0.03770000  0.23953000  0.40045000  1.0
  C  C39  1  0.91551000  0.25032000  0.33984000  1.0
  C  C40  1  0.91922000  0.16209000  0.28754000  1.0
  C  C41  1  0.04452000  0.06290000  0.29528000  1.0
  C  C42  1  0.17001000  0.05168000  0.35394000  1.0
  C  C43  1  0.16458000  0.14104000  0.40608000  1.0
  C  C44  1  0.30466000  0.94813000  0.36164000  1.0
  C  C45  1  0.27790000  0.83703000  0.37232000  1.0
  C  C46  1  0.40545000  0.74048000  0.38395000  1.0
  C  C47  1  0.58678000  0.85493000  0.37036000  1.0
  C  C48  1  0.46492000  0.95541000  0.36076000  1.0
  N  N1  1  0.05920000  0.38275000  0.74802000  1.0
  N  N2  1  0.44081000  0.25199000  0.61724000  1.0
  N  N3  1  0.94081000  0.61725000  0.25198000  1.0
  N  N4  1  0.55920000  0.74801000  0.38275000  1.0
  O  O1  1  0.64779000  0.51267000  0.31709000  1.0
  O  O2  1  0.40241000  0.46687000  0.41201000  1.0
  O  O3  1  0.85222000  0.68291000  0.48733000  1.0
  O  O4  1  0.09760000  0.58799000  0.53313000  1.0
  O  O5  1  0.35222000  0.48733000  0.68291000  1.0
  O  O6  1  0.59760000  0.53313000  0.58799000  1.0
  O  O7  1  0.14779000  0.31709000  0.51267000  1.0
  O  O8  1  0.90240000  0.41201000  0.46687000  1.0
