# generated using pymatgen
data_H28C53(NO)8
_symmetry_space_group_name_H-M   'P 1'
_cell_length_a   33.69900000
_cell_length_b   33.69900000
_cell_length_c   40.48720000
_cell_angle_alpha   90.00000000
_cell_angle_beta   90.00000000
_cell_angle_gamma   120.00000000
_symmetry_Int_Tables_number   1
_chemical_formula_structural   H28C53(NO)8
_chemical_formula_sum   'H84 C159 N24 O24'
_cell_volume   39818.27135522
_cell_formula_units_Z   3
loop_
 _symmetry_equiv_pos_site_id
 _symmetry_equiv_pos_as_xyz
  1  'x, y, z'
loop_
 _atom_site_type_symbol
 _atom_site_label
 _atom_site_symmetry_multiplicity
 _atom_site_fract_x
 _atom_site_fract_y
 _atom_site_fract_z
 _atom_site_occupancy
  H  26  1  0.33225700  0.42242900  0.06320500  1
  H  27  1  0.34888000  0.38099400  0.02242700  1
  H  28  1  0.37990300  0.35120800  0.97856600  1
  H  29  1  0.42128900  0.33683500  0.93638200  1
  H  30  1  0.53411300  0.47120800  0.94855600  1
  H  31  1  0.46403800  0.53856800  0.04906000  1
  H  32  1  0.44772300  0.51986700  0.94853000  1
  H  33  1  0.56054800  0.65424900  0.93640400  1
  H  34  1  0.60189400  0.63987000  0.97861400  1
  H  35  1  0.51773500  0.45246300  0.04904500  1
  H  36  1  0.63287900  0.61007800  0.02250300  1
  H  37  1  0.64949000  0.56861000  0.06326000  1
  H  43  1  0.40957800  0.52513300  0.10103000  1
  H  44  1  0.51598100  0.41615200  0.89451100  1
  H  45  1  0.57213200  0.46575900  0.10098000  1
  H  46  1  0.46606700  0.57500800  0.89444000  1
  H  71  1  0.07644400  0.65412900  0.39659000  1
  H  72  1  0.01837300  0.63754000  0.35582900  1
  H  73  1  0.95758400  0.60656800  0.31194800  1
  H  74  1  0.90185100  0.56523700  0.26974200  1
  H  75  1  0.92337400  0.45238600  0.28185500  1
  H  76  1  0.06078900  0.52235700  0.38236800  1
  H  77  1  0.05843500  0.53876300  0.28188200  1
  H  78  1  0.08000400  0.42595100  0.26972200  1
  H  79  1  0.02424500  0.38456300  0.31190100  1
  H  80  1  0.92100100  0.46868400  0.38239000  1
  H  81  1  0.96342800  0.35353300  0.35575400  1
  H  82  1  0.90537900  0.33691000  0.39654000  1
  H  87  1  0.10192500  0.57672900  0.43428500  1
  H  88  1  0.88636000  0.47032600  0.22789900  1
  H  89  1  0.87990900  0.41425900  0.43431000  1
  H  90  1  0.09537500  0.52063200  0.22784200  1
  H  115  1  0.56394600  0.90999900  0.72989200  1
  H  116  1  0.60540500  0.96806000  0.68912400  1
  H  117  1  0.63522100  0.02887200  0.64528100  1
  H  118  1  0.64963000  0.08462900  0.60309400  1
  H  119  1  0.51525000  0.06308700  0.61519900  1
  H  120  1  0.44780900  0.92563200  0.71569800  1
  H  121  1  0.46653000  0.92802200  0.61518000  1
  H  122  1  0.33216100  0.90650500  0.60305500  1
  H  123  1  0.34655400  0.96223200  0.64526100  1
  H  124  1  0.53394800  0.06544400  0.71570300  1
  H  125  1  0.37635200  0.02300600  0.68913100  1
  H  126  1  0.41780700  0.08106900  0.72990000  1
  H  132  1  0.46111500  0.88452200  0.76763400  1
  H  133  1  0.57019000  0.10015100  0.56127600  1
  H  134  1  0.52065300  0.10654100  0.76763300  1
  H  135  1  0.41167800  0.89090600  0.56129100  1
  H  142  1  0.52219400  0.23026100  0.73472100  1
  H  149  1  0.55481400  0.31953900  0.92044400  1
  H  150  1  0.47985000  0.34589300  0.84951600  1
  H  151  1  0.50692800  0.14699300  0.81656500  1
  H  156  1  0.62631000  0.29921500  0.85230300  1
  H  159  1  0.58317000  0.36704900  0.77015600  1
  H  168  1  0.69415800  0.46402600  0.06800200  1
  H  175  1  0.75107700  0.43179100  0.25374200  1
  H  176  1  0.85233300  0.50663200  0.18275200  1
  H  177  1  0.62649700  0.47968400  0.14988200  1
  H  182  1  0.65918400  0.36012400  0.18564900  1
  H  185  1  0.77031300  0.40337100  0.10366200  1
  H  194  1  0.75614700  0.29211800  0.40135400  1
  H  201  1  0.66698000  0.23540000  0.58710200  1
  H  202  1  0.64051200  0.13413100  0.51611100  1
  H  203  1  0.83945900  0.36001100  0.48320000  1
  H  208  1  0.68715500  0.32724000  0.51903300  1
  H  211  1  0.61933100  0.21630400  0.43682200  1
  H  220  1  0.45950000  0.76075000  0.73470900  1
  H  227  1  0.42713000  0.67160800  0.92044800  1
  H  228  1  0.50185700  0.64503200  0.84944400  1
  H  229  1  0.47496100  0.84412300  0.81651300  1
  H  234  1  0.35545000  0.69144700  0.85254000  1
  H  237  1  0.39856500  0.62399400  0.77021000  1
  H  246  1  0.28746700  0.52684300  0.06804600  1
  H  253  1  0.23082000  0.55944700  0.25377200  1
  H  254  1  0.12948400  0.48448700  0.18285300  1
  H  255  1  0.35543300  0.51150700  0.14988400  1
  H  260  1  0.32263600  0.63091700  0.18561900  1
  H  263  1  0.21166800  0.58781600  0.10349700  1
  H  272  1  0.22570100  0.69874800  0.40131900  1
  H  279  1  0.31479400  0.75575500  0.58707200  1
  H  280  1  0.34127900  0.85696500  0.51603000  1
  H  281  1  0.14237000  0.63113700  0.48320000  1
  H  286  1  0.29458900  0.66380200  0.51902100  1
  H  289  1  0.36251100  0.77491200  0.43698000  1
  C  1  1  0.99088700  0.49554000  0.33293200  1
  C  2  1  0.53284000  0.51017600  0.01970000  1
  C  3  1  0.56598400  0.55536800  0.01219900  1
  C  4  1  0.54872300  0.57192700  0.98812700  1
  C  5  1  0.50445500  0.53741600  0.97969400  1
  C  6  1  0.47982100  0.54547400  0.95489800  1
  C  7  1  0.49985500  0.58874600  0.93900800  1
  C  8  1  0.54481100  0.62310600  0.94807100  1
  C  9  1  0.56936600  0.61496700  0.97262200  1
  C  10  1  0.60884600  0.57700300  0.02798200  1
  C  11  1  0.61830500  0.55236800  0.05167300  1
  C  12  1  0.58545700  0.50635500  0.05963400  1
  C  13  1  0.54219900  0.48547900  0.04366300  1
  C  14  1  0.44893900  0.48088000  0.01968800  1
  C  15  1  0.41579200  0.43569800  0.01216200  1
  C  16  1  0.43305300  0.41916400  0.98807400  1
  C  17  1  0.47734600  0.45366100  0.97968300  1
  C  18  1  0.41242400  0.37612300  0.97256900  1
  C  19  1  0.43700200  0.36798800  0.94803600  1
  C  20  1  0.48196300  0.40234700  0.93899000  1
  C  21  1  0.50199900  0.44561100  0.95489600  1
  C  22  1  0.43957400  0.50555700  0.04366600  1
  C  23  1  0.39630400  0.48467800  0.05961600  1
  C  24  1  0.36345200  0.43867800  0.05162900  1
  C  25  1  0.37291800  0.41406100  0.02792500  1
  C  38  1  0.49089400  0.49553300  0.99961100  1
  C  39  1  0.50409400  0.39426000  0.91333900  1
  C  40  1  0.38653300  0.50785000  0.08358000  1
  C  41  1  0.59521900  0.48316100  0.08358000  1
  C  42  1  0.47778900  0.59683100  0.91331300  1
  C  47  1  0.96358200  0.45358300  0.35300800  1
  C  48  1  0.97562200  0.42043800  0.34548500  1
  C  49  1  0.00941500  0.43770100  0.32139500  1
  C  50  1  0.01920100  0.48198900  0.31299800  1
  C  51  1  0.05191800  0.50665000  0.28822200  1
  C  52  1  0.07516200  0.48662400  0.27232600  1
  C  53  1  0.06456100  0.44166200  0.28137000  1
  C  54  1  0.03183100  0.41707300  0.30589400  1
  C  55  1  0.95439300  0.37756700  0.36125200  1
  C  56  1  0.92031300  0.36809900  0.38495600  1
  C  57  1  0.90716400  0.40095100  0.39294600  1
  C  58  1  0.92953600  0.44421500  0.37698300  1
  C  59  1  0.01819400  0.53747800  0.35302500  1
  C  60  1  0.00616400  0.57063700  0.34552200  1
  C  61  1  0.97236200  0.55339500  0.32143700  1
  C  62  1  0.96256500  0.50911000  0.31302200  1
  C  63  1  0.94995300  0.57404000  0.30595100  1
  C  64  1  0.91724800  0.54948700  0.28140500  1
  C  65  1  0.90665000  0.50453800  0.27232800  1
  C  66  1  0.92987500  0.48448600  0.28822200  1
  C  67  1  0.05224000  0.54682200  0.37699300  1
  C  68  1  0.07463900  0.59008200  0.39296100  1
  C  69  1  0.06148800  0.62294200  0.38500300  1
  C  70  1  0.02739700  0.61349400  0.36130900  1
  C  83  1  0.87647800  0.48246600  0.24664300  1
  C  84  1  0.10759900  0.59984100  0.41690700  1
  C  85  1  0.87421900  0.39117600  0.41691000  1
  C  86  1  0.10538100  0.50875000  0.24667300  1
  C  91  1  0.47624600  0.02284900  0.68634500  1
  C  92  1  0.43105500  0.01081000  0.67883900  1
  C  93  1  0.41449900  0.97700100  0.65476300  1
  C  94  1  0.44900100  0.96723000  0.64633300  1
  C  95  1  0.44093000  0.93452900  0.62154000  1
  C  96  1  0.39766000  0.91131100  0.60563800  1
  C  97  1  0.36331200  0.92191900  0.61470800  1
  C  98  1  0.37146200  0.95461900  0.63925400  1
  C  99  1  0.40942300  0.03204000  0.69461500  1
  C  100  1  0.43405200  0.06612600  0.71831300  1
  C  101  1  0.48006200  0.07928300  0.72628400  1
  C  102  1  0.50093700  0.05690200  0.71031300  1
  C  103  1  0.50551600  0.96822800  0.68634300  1
  C  104  1  0.55070400  0.98026500  0.67883700  1
  C  105  1  0.56725300  0.01405900  0.65475000  1
  C  106  1  0.53276100  0.02385200  0.64633500  1
  C  107  1  0.61030600  0.03646800  0.63926100  1
  C  108  1  0.61846700  0.06919300  0.61473300  1
  C  109  1  0.58412300  0.07980900  0.60566800  1
  C  110  1  0.54084100  0.05656800  0.62155200  1
  C  111  1  0.48082100  0.93417500  0.71031100  1
  C  112  1  0.50169500  0.91179000  0.72627600  1
  C  113  1  0.54770400  0.92494500  0.71830900  1
  C  114  1  0.57233600  0.95903100  0.69461200  1
  C  127  1  0.49088000  0.99554000  0.66625800  1
  C  128  1  0.59224100  0.11001400  0.58000100  1
  C  129  1  0.47851000  0.87883600  0.75023200  1
  C  130  1  0.50323600  0.11222600  0.75024700  1
  C  131  1  0.38955200  0.88111500  0.57996600  1
  C  136  1  0.51481300  0.18335200  0.77186900  1
  C  137  1  0.51511900  0.17788500  0.80635000  1
  C  139  1  0.53106000  0.25490300  0.81611600  1
  C  140  1  0.53207900  0.26258000  0.78140200  1
  C  141  1  0.52326900  0.22607700  0.75975100  1
  C  143  1  0.53207500  0.28558800  0.84086000  1
  C  144  1  0.55109600  0.29068000  0.87309800  1
  C  145  1  0.54295600  0.31678200  0.89673900  1
  C  146  1  0.51796400  0.33866400  0.88853400  1
  C  147  1  0.50042300  0.33299900  0.85623200  1
  C  152  1  0.57760400  0.27167800  0.88271900  1
  C  153  1  0.54119900  0.30378900  0.76747400  1
  C  162  1  0.65468800  0.47146100  0.10516700  1
  C  163  1  0.64899700  0.47123200  0.13965200  1
  C  165  1  0.71010100  0.45529800  0.14939000  1
  C  166  1  0.71666900  0.45420100  0.11466600  1
  C  167  1  0.68892100  0.46295600  0.09303400  1
  C  169  1  0.73980000  0.45432600  0.17412400  1
  C  170  1  0.72589500  0.43536400  0.20637900  1
  C  171  1  0.76015700  0.44356700  0.23001800  1
  C  172  1  0.80702400  0.46854600  0.22179100  1
  C  173  1  0.81888100  0.48593300  0.18944800  1
  C  178  1  0.68039400  0.40888000  0.21602600  1
  C  179  1  0.74868900  0.44501700  0.10066400  1
  C  188  1  0.80306600  0.33162200  0.43850200  1
  C  189  1  0.80851000  0.33748100  0.47298200  1
  C  191  1  0.73146000  0.27641500  0.48274800  1
  C  192  1  0.72381000  0.26973800  0.44803300  1
  C  193  1  0.76031600  0.29741100  0.42638200  1
  C  195  1  0.70089600  0.24666300  0.50751100  1
  C  196  1  0.69577800  0.26058300  0.53974800  1
  C  197  1  0.66969200  0.22632100  0.56338100  1
  C  198  1  0.64781000  0.17945300  0.55515300  1
  C  199  1  0.65338800  0.16759700  0.52282200  1
  C  204  1  0.71477000  0.30608300  0.54939100  1
  C  205  1  0.68259800  0.23764100  0.43411000  1
  C  214  1  0.46696500  0.80770800  0.77183600  1
  C  215  1  0.46667200  0.81319500  0.80631900  1
  C  217  1  0.45077300  0.73619500  0.81611100  1
  C  218  1  0.44967400  0.72847300  0.78139900  1
  C  219  1  0.45844300  0.76495100  0.75973600  1
  C  221  1  0.44985500  0.70556300  0.84086000  1
  C  222  1  0.43084800  0.70047900  0.87310700  1
  C  223  1  0.43895700  0.67434100  0.89673600  1
  C  224  1  0.46390200  0.65241700  0.88850100  1
  C  225  1  0.48135500  0.65799700  0.85618200  1
  C  230  1  0.40437200  0.71953600  0.88276200  1
  C  231  1  0.44053000  0.68724900  0.76748400  1
  C  240  1  0.32697700  0.51942200  0.10519100  1
  C  241  1  0.33273700  0.51970400  0.13967100  1
  C  243  1  0.27167300  0.53566300  0.14944200  1
  C  244  1  0.26502300  0.53669900  0.11473000  1
  C  245  1  0.29271300  0.52789200  0.09307600  1
  C  247  1  0.24201100  0.53668800  0.17418800  1
  C  248  1  0.25594900  0.55571200  0.20642300  1
  C  249  1  0.22171300  0.54758600  0.23006800  1
  C  250  1  0.17483800  0.52260100  0.22186500  1
  C  251  1  0.16295200  0.50505600  0.18956600  1
  C  256  1  0.30146200  0.58221500  0.21604100  1
  C  257  1  0.23294200  0.54583500  0.10080500  1
  C  266  1  0.17878700  0.65927900  0.43847700  1
  C  267  1  0.17332700  0.65362400  0.47296700  1
  C  269  1  0.25036700  0.71471700  0.48270600  1
  C  270  1  0.25803600  0.72126900  0.44798100  1
  C  271  1  0.22153200  0.69351600  0.42635200  1
  C  273  1  0.28103800  0.74442900  0.50743700  1
  C  274  1  0.28607600  0.73054200  0.53970400  1
  C  275  1  0.31211900  0.76481600  0.56333900  1
  C  276  1  0.33402300  0.81167800  0.55509200  1
  C  277  1  0.32852200  0.82351900  0.52273800  1
  C  282  1  0.26704000  0.68504700  0.54936900  1
  C  283  1  0.29924300  0.75328600  0.43397400  1
  N  138  1  0.52222600  0.21285200  0.82655600  1
  N  148  1  0.50737900  0.30662900  0.83446200  1
  N  160  1  0.50432600  0.35625900  0.91220400  1
  N  161  1  0.49992600  0.14859100  0.75090900  1
  N  164  1  0.67694900  0.46422700  0.15983300  1
  N  174  1  0.78553000  0.47899700  0.16770500  1
  N  186  1  0.83827000  0.48228200  0.24545300  1
  N  187  1  0.63487600  0.48642200  0.08421400  1
  N  190  1  0.77354800  0.30957700  0.49317600  1
  N  200  1  0.67978100  0.20093900  0.50107000  1
  N  212  1  0.63028400  0.14820100  0.57881000  1
  N  213  1  0.83784400  0.35150500  0.41755400  1
  N  216  1  0.45963100  0.77825800  0.82653300  1
  N  226  1  0.47443000  0.68440500  0.83442700  1
  N  238  1  0.47745800  0.63478200  0.91219800  1
  N  239  1  0.48182700  0.84247400  0.75088700  1
  N  242  1  0.30488000  0.52681300  0.15988000  1
  N  252  1  0.19627100  0.51199800  0.16779400  1
  N  264  1  0.14360900  0.50897400  0.24553700  1
  N  265  1  0.34687300  0.50457600  0.08421700  1
  N  268  1  0.20828200  0.68157900  0.49314800  1
  N  278  1  0.30211100  0.79015200  0.50100000  1
  N  290  1  0.35149300  0.84294700  0.57874100  1
  N  291  1  0.14400100  0.63948800  0.41753900  1
  O  154  1  0.55880900  0.23688100  0.89946900  1
  O  155  1  0.61070100  0.27647200  0.86636300  1
  O  157  1  0.50866800  0.30635600  0.75647900  1
  O  158  1  0.57641800  0.33902900  0.77601600  1
  O  180  1  0.66441400  0.42770600  0.23276300  1
  O  181  1  0.65206800  0.37576000  0.19969800  1
  O  183  1  0.78411300  0.47805600  0.09056400  1
  O  184  1  0.74890500  0.40998800  0.10939800  1
  O  206  1  0.74960100  0.32209500  0.56610200  1
  O  207  1  0.70992600  0.33438300  0.53307000  1
  O  209  1  0.68005200  0.20257400  0.42307400  1
  O  210  1  0.64734900  0.23758200  0.44268100  1
  O  232  1  0.42346500  0.75443900  0.89937200  1
  O  233  1  0.37115400  0.71442200  0.86641200  1
  O  235  1  0.47304100  0.68467300  0.75645900  1
  O  236  1  0.40532700  0.65202100  0.77606100  1
  O  258  1  0.31745900  0.56341500  0.23279000  1
  O  259  1  0.32976700  0.61530500  0.19968000  1
  O  261  1  0.19784100  0.51331300  0.08980600  1
  O  262  1  0.23293300  0.58105600  0.10935600  1
  O  284  1  0.23222800  0.66908700  0.56609700  1
  O  285  1  0.27183500  0.65670400  0.53306200  1
  O  287  1  0.30162400  0.78870600  0.42386700  1
  O  288  1  0.33448500  0.75350600  0.44271500  1
