# generated using pymatgen
data_Sm2H9C21(NO4)3
_symmetry_space_group_name_H-M   'P 1'
_cell_length_a   8.84750000
_cell_length_b   10.71600000
_cell_length_c   18.89500000
_cell_angle_alpha   75.52100000
_cell_angle_beta   83.77700000
_cell_angle_gamma   69.30600000
_symmetry_Int_Tables_number   1
_chemical_formula_structural   Sm2H9C21(NO4)3
_chemical_formula_sum   'Sm4 H18 C42 N6 O24'
_cell_volume   1622.22657393
_cell_formula_units_Z   2
loop_
 _symmetry_equiv_pos_site_id
 _symmetry_equiv_pos_as_xyz
  1  'x, y, z'
loop_
 _atom_site_type_symbol
 _atom_site_label
 _atom_site_symmetry_multiplicity
 _atom_site_fract_x
 _atom_site_fract_y
 _atom_site_fract_z
 _atom_site_occupancy
  Sm  Sm1  1  0.00220000  0.41200000  0.28695000  1.0
  Sm  Sm2  1  0.39655000  0.53203000  0.22375000  1.0
  Sm  Sm3  1  0.99780000  0.58800000  0.71305000  1.0
  Sm  Sm4  1  0.60345000  0.46797000  0.77625000  1.0
  H  H1  1  0.55740000  0.29240000  0.39430000  1.0
  H  H2  1  0.20290000  0.44140000  0.53290000  1.0
  H  H3  1  0.66940000  0.29990000  0.58700000  1.0
  H  H4  1  0.93680000  0.71350000  0.86820000  1.0
  H  H5  1  0.62050000  0.58770000  0.01120000  1.0
  H  H6  1  0.97560000  0.68560000  0.07410000  1.0
  H  H7  1  0.53420000  0.14400000  0.24200000  1.0
  H  H8  1  0.77330000  0.76100000  0.24490000  1.0
  H  H9  1  0.01520000  0.00950000  0.24920000  1.0
  H  H10  1  0.44260000  0.70760000  0.60570000  1.0
  H  H11  1  0.79710000  0.55860000  0.46710000  1.0
  H  H12  1  0.33060000  0.70010000  0.41300000  1.0
  H  H13  1  0.06320000  0.28650000  0.13180000  1.0
  H  H14  1  0.37950000  0.41230000  0.98880000  1.0
  H  H15  1  0.02440000  0.31440000  0.92590000  1.0
  H  H16  1  0.46580000  0.85600000  0.75800000  1.0
  H  H17  1  0.22670000  0.23900000  0.75510000  1.0
  H  H18  1  0.98480000  0.99050000  0.75080000  1.0
  C  C1  1  0.52600000  0.31420000  0.43950000  1.0
  C  C2  1  0.36140000  0.37140000  0.45440000  1.0
  C  C3  1  0.31200000  0.40340000  0.52140000  1.0
  C  C4  1  0.43160000  0.37700000  0.57210000  1.0
  C  C5  1  0.59150000  0.31920000  0.55280000  1.0
  C  C6  1  0.24430000  0.40010000  0.39610000  1.0
  C  C7  1  0.38570000  0.41630000  0.64390000  1.0
  C  C8  1  0.90050000  0.69140000  0.91620000  1.0
  C  C9  1  0.76950000  0.64310000  0.92970000  1.0
  C  C10  1  0.71050000  0.61540000  0.00100000  1.0
  C  C11  1  0.78930000  0.63010000  0.05690000  1.0
  C  C12  1  0.92210000  0.67630000  0.03710000  1.0
  C  C13  1  0.74480000  0.59220000  0.13600000  1.0
  C  C14  1  0.70080000  0.61200000  0.87020000  1.0
  C  C15  1  0.63210000  0.07230000  0.24390000  1.0
  C  C16  1  0.77280000  0.84760000  0.24570000  1.0
  C  C17  1  0.91820000  0.86440000  0.24980000  1.0
  C  C18  1  0.91810000  0.99420000  0.24890000  1.0
  C  C19  1  0.77250000  0.10110000  0.24750000  1.0
  C  C20  1  0.76290000  0.24410000  0.24790000  1.0
  C  C21  1  0.07240000  0.74230000  0.25400000  1.0
  C  C22  1  0.47400000  0.68580000  0.56050000  1.0
  C  C23  1  0.63860000  0.62860000  0.54560000  1.0
  C  C24  1  0.68800000  0.59660000  0.47860000  1.0
  C  C25  1  0.56840000  0.62300000  0.42790000  1.0
  C  C26  1  0.40850000  0.68080000  0.44720000  1.0
  C  C27  1  0.75570000  0.59990000  0.60390000  1.0
  C  C28  1  0.61430000  0.58370000  0.35610000  1.0
  C  C29  1  0.09950000  0.30860000  0.08380000  1.0
  C  C30  1  0.23050000  0.35690000  0.07030000  1.0
  C  C31  1  0.28950000  0.38460000  0.99900000  1.0
  C  C32  1  0.21070000  0.36990000  0.94310000  1.0
  C  C33  1  0.07790000  0.32370000  0.96290000  1.0
  C  C34  1  0.25520000  0.40780000  0.86400000  1.0
  C  C35  1  0.29920000  0.38800000  0.12980000  1.0
  C  C36  1  0.36790000  0.92770000  0.75610000  1.0
  C  C37  1  0.22720000  0.15240000  0.75430000  1.0
  C  C38  1  0.08180000  0.13560000  0.75020000  1.0
  C  C39  1  0.08190000  0.00580000  0.75110000  1.0
  C  C40  1  0.22750000  0.89890000  0.75250000  1.0
  C  C41  1  0.23710000  0.75590000  0.75210000  1.0
  C  C42  1  0.92760000  0.25770000  0.74600000  1.0
  N  N1  1  0.64180000  0.28870000  0.48700000  1.0
  N  N2  1  0.97510000  0.70710000  0.96930000  1.0
  N  N3  1  0.62770000  0.95110000  0.24290000  1.0
  N  N4  1  0.35820000  0.71130000  0.51300000  1.0
  N  N5  1  0.02490000  0.29290000  0.03070000  1.0
  N  N6  1  0.37230000  0.04890000  0.75710000  1.0
  O  O1  1  0.09460000  0.42930000  0.41130000  1.0
  O  O2  1  0.29680000  0.39370000  0.33150000  1.0
  O  O3  1  0.23410000  0.46050000  0.66010000  1.0
  O  O4  1  0.49470000  0.41040000  0.68260000  1.0
  O  O5  1  0.85150000  0.55570000  0.18050000  1.0
  O  O6  1  0.59790000  0.60200000  0.15040000  1.0
  O  O7  1  0.56760000  0.58930000  0.88120000  1.0
  O  O8  1  0.78020000  0.60160000  0.81050000  1.0
  O  O9  1  0.62420000  0.32690000  0.25650000  1.0
  O  O10  1  0.89250000  0.26780000  0.24130000  1.0
  O  O11  1  0.20430000  0.75920000  0.25350000  1.0
  O  O12  1  0.06270000  0.62920000  0.25560000  1.0
  O  O13  1  0.90540000  0.57070000  0.58870000  1.0
  O  O14  1  0.70320000  0.60630000  0.66850000  1.0
  O  O15  1  0.76590000  0.53950000  0.33990000  1.0
  O  O16  1  0.50530000  0.58960000  0.31740000  1.0
  O  O17  1  0.14850000  0.44430000  0.81950000  1.0
  O  O18  1  0.40210000  0.39800000  0.84960000  1.0
  O  O19  1  0.43240000  0.41070000  0.11880000  1.0
  O  O20  1  0.21980000  0.39840000  0.18950000  1.0
  O  O21  1  0.37580000  0.67310000  0.74350000  1.0
  O  O22  1  0.10750000  0.73220000  0.75870000  1.0
  O  O23  1  0.79570000  0.24080000  0.74650000  1.0
  O  O24  1  0.93730000  0.37080000  0.74440000  1.0
