# generated using pymatgen
data_AgH8C20(SN)4
_symmetry_space_group_name_H-M   'P 1'
_cell_length_a   5.00906000
_cell_length_b   16.41025000
_cell_length_c   16.41531000
_cell_angle_alpha   89.99907000
_cell_angle_beta   89.99860000
_cell_angle_gamma   89.99627000
_symmetry_Int_Tables_number   1
_chemical_formula_structural   AgH8C20(SN)4
_chemical_formula_sum   'Ag2 H16 C40 S8 N8'
_cell_volume   1349.33727803
_cell_formula_units_Z   2
loop_
 _symmetry_equiv_pos_site_id
 _symmetry_equiv_pos_as_xyz
  1  'x, y, z'
loop_
 _atom_site_type_symbol
 _atom_site_label
 _atom_site_symmetry_multiplicity
 _atom_site_fract_x
 _atom_site_fract_y
 _atom_site_fract_z
 _atom_site_occupancy
  Ag  Ag0  1  0.50018000  0.74996000  0.75001000  1
  Ag  Ag1  1  0.49980000  0.25004000  0.24999000  1
  H  H2  1  0.11114000  0.45346000  0.71050000  1
  H  H3  1  0.45839000  0.39352000  0.60604000  1
  H  H4  1  0.11114000  0.04655000  0.78951000  1
  H  H5  1  0.45835000  0.10648000  0.89395000  1
  H  H6  1  0.11119000  0.28945000  0.95338000  1
  H  H7  1  0.45843000  0.39398000  0.89351000  1
  H  H8  1  0.11106000  0.21061000  0.54669000  1
  H  H9  1  0.45849000  0.10603000  0.60644000  1
  H  H10  1  0.88885000  0.54655000  0.28950000  1
  H  H11  1  0.54160000  0.60648000  0.39396000  1
  H  H12  1  0.88886000  0.95345000  0.21048000  1
  H  H13  1  0.54166000  0.89352000  0.10605000  1
  H  H14  1  0.88881000  0.71055000  0.04661000  1
  H  H15  1  0.54158000  0.60603000  0.10649000  1
  H  H16  1  0.88896000  0.78940000  0.45331000  1
  H  H17  1  0.54153000  0.89397000  0.39356000  1
  C  C18  1  0.10032000  0.56339000  0.63652000  1
  C  C19  1  0.19075000  0.48536000  0.65805000  1
  C  C20  1  0.36654000  0.45316000  0.60091000  1
  C  C21  1  0.41636000  0.50606000  0.53456000  1
  C  C22  1  0.89604000  0.60638000  0.67588000  1
  C  C23  1  0.10035000  0.93661000  0.86350000  1
  C  C24  1  0.19073000  0.01463000  0.84197000  1
  C  C25  1  0.36652000  0.04685000  0.89909000  1
  C  C26  1  0.41639000  0.99395000  0.96543000  1
  C  C27  1  0.89610000  0.89360000  0.82414000  1
  C  C28  1  0.09999000  0.36343000  0.06333000  1
  C  C29  1  0.19061000  0.34191000  0.98533000  1
  C  C30  1  0.36657000  0.39906000  0.95312000  1
  C  C31  1  0.41636000  0.46539000  0.00602000  1
  C  C32  1  0.89717000  0.32423000  0.10625000  1
  C  C33  1  0.10037000  0.13667000  0.43659000  1
  C  C34  1  0.19069000  0.15817000  0.51467000  1
  C  C35  1  0.36638000  0.10092000  0.54688000  1
  C  C36  1  0.41618000  0.03459000  0.49400000  1
  C  C37  1  0.89645000  0.17564000  0.39376000  1
  C  C38  1  0.89971000  0.43662000  0.36348000  1
  C  C39  1  0.80926000  0.51464000  0.34195000  1
  C  C40  1  0.63346000  0.54684000  0.39909000  1
  C  C41  1  0.58364000  0.49394000  0.46543000  1
  C  C42  1  0.10389000  0.39363000  0.32412000  1
  C  C43  1  0.89959000  0.06339000  0.13650000  1
  C  C44  1  0.80925000  0.98537000  0.15803000  1
  C  C45  1  0.63348000  0.95316000  0.10091000  1
  C  C46  1  0.58361000  0.00605000  0.03456000  1
  C  C47  1  0.10409000  0.10644000  0.17589000  1
  C  C48  1  0.90008000  0.63658000  0.93665000  1
  C  C49  1  0.80941000  0.65809000  0.01466000  1
  C  C50  1  0.63343000  0.60094000  0.04688000  1
  C  C51  1  0.58363000  0.53461000  0.99398000  1
  C  C52  1  0.10254000  0.67571000  0.89380000  1
  C  C53  1  0.89961000  0.86334000  0.56342000  1
  C  C54  1  0.80930000  0.84183000  0.48533000  1
  C  C55  1  0.63361000  0.89909000  0.45312000  1
  C  C56  1  0.58383000  0.96542000  0.50601000  1
  C  C57  1  0.10362000  0.82437000  0.60625000  1
  S  S58  1  0.24170000  0.59652000  0.54567000  1
  S  S59  1  0.24177000  0.90349000  0.95434000  1
  S  S60  1  0.24181000  0.45434000  0.09644000  1
  S  S61  1  0.24178000  0.04573000  0.40357000  1
  S  S62  1  0.75830000  0.40349000  0.45433000  1
  S  S63  1  0.75823000  0.09651000  0.04566000  1
  S  S64  1  0.75819000  0.54566000  0.90355000  1
  S  S65  1  0.75823000  0.95427000  0.59643000  1
  N  N66  1  0.72134000  0.63610000  0.71360000  1
  N  N67  1  0.72146000  0.86387000  0.78642000  1
  N  N68  1  0.72091000  0.28638000  0.13637000  1
  N  N69  1  0.72084000  0.21352000  0.36363000  1
  N  N70  1  0.27870000  0.36389000  0.28638000  1
  N  N71  1  0.27842000  0.13610000  0.21354000  1
  N  N72  1  0.27932000  0.71369000  0.86359000  1
  N  N73  1  0.27911000  0.78647000  0.63634000  1
