# generated using pymatgen
data_CuH10C21N(O2F)2
_symmetry_space_group_name_H-M   'P 1'
_cell_length_a   10.43268000
_cell_length_b   10.86375000
_cell_length_c   10.87109000
_cell_angle_alpha   90.30709000
_cell_angle_beta   90.68588000
_cell_angle_gamma   90.39825000
_symmetry_Int_Tables_number   1
_chemical_formula_structural   CuH10C21N(O2F)2
_chemical_formula_sum   'Cu2 H20 C42 N2 O8 F4'
_cell_volume   1231.97160132
_cell_formula_units_Z   2
loop_
 _symmetry_equiv_pos_site_id
 _symmetry_equiv_pos_as_xyz
  1  'x, y, z'
loop_
 _atom_site_type_symbol
 _atom_site_label
 _atom_site_symmetry_multiplicity
 _atom_site_fract_x
 _atom_site_fract_y
 _atom_site_fract_z
 _atom_site_occupancy
  Cu  Cu0  1  0.62530000  0.50000000  0.50000000  1
  Cu  Cu1  1  0.37470000  0.50000000  0.50000000  1
  H  H2  1  0.97390000  0.26282000  0.74593000  1
  H  H3  1  0.02594000  0.73583000  0.25495000  1
  H  H4  1  0.16475000  0.60376000  0.07214000  1
  H  H5  1  0.83447000  0.39557000  0.92552000  1
  H  H6  1  0.95549000  0.53498000  0.15225000  1
  H  H7  1  0.04383000  0.46458000  0.84574000  1
  H  H8  1  0.30099000  0.46050000  0.87924000  1
  H  H9  1  0.69896000  0.53971000  0.12074000  1
  H  H10  1  0.18125000  0.26884000  0.85993000  1
  H  H11  1  0.81913000  0.73143000  0.13995000  1
  H  H12  1  0.37520000  0.17917000  0.76756000  1
  H  H13  1  0.62525000  0.82189000  0.23175000  1
  H  H14  1  0.95962000  0.16455000  0.54038000  1
  H  H15  1  0.03976000  0.83328000  0.46094000  1
  H  H16  1  0.31317000  0.88064000  0.57448000  1
  H  H17  1  0.68684000  0.11933000  0.42541000  1
  H  H18  1  0.93010000  0.32542000  0.23691000  1
  H  H19  1  0.06989000  0.67512000  0.76369000  1
  H  H20  1  0.11412000  0.18296000  0.23993000  1
  H  H21  1  0.88650000  0.81836000  0.76300000  1
  C  C22  1  0.49893000  0.49618000  0.26149000  1
  C  C23  1  0.50107000  0.50386000  0.73850000  1
  C  C24  1  0.50167000  0.87197000  0.49463000  1
  C  C25  1  0.49832000  0.12802000  0.50526000  1
  C  C26  1  0.60836000  0.93980000  0.45255000  1
  C  C27  1  0.39161000  0.06018000  0.54731000  1
  C  C28  1  0.12640000  0.27527000  0.20544000  1
  C  C29  1  0.87390000  0.72561000  0.79624000  1
  C  C30  1  0.24558000  0.31345000  0.16140000  1
  C  C31  1  0.75466000  0.68729000  0.84003000  1
  C  C32  1  0.26065000  0.43258000  0.11353000  1
  C  C33  1  0.73922000  0.56763000  0.88648000  1
  C  C34  1  0.15526000  0.51233000  0.11039000  1
  C  C35  1  0.84426000  0.48743000  0.88834000  1
  C  C36  1  0.03671000  0.47378000  0.15553000  1
  C  C37  1  0.96285000  0.52610000  0.84339000  1
  C  C38  1  0.02224000  0.35537000  0.20292000  1
  C  C39  1  0.97770000  0.64507000  0.79748000  1
  C  C40  1  0.38803000  0.47880000  0.93180000  1
  C  C41  1  0.61192000  0.52133000  0.06819000  1
  C  C42  1  0.50282000  0.50583000  0.87210000  1
  C  C43  1  0.49715000  0.49424000  0.12790000  1
  C  C44  1  0.49939000  0.26157000  0.50352000  1
  C  C45  1  0.50061000  0.73843000  0.49645000  1
  C  C46  1  0.61614000  0.52906000  0.94119000  1
  C  C47  1  0.38380000  0.47105000  0.05881000  1
  C  C48  1  0.07196000  0.50001000  0.50001000  1
  C  C49  1  0.92804000  0.49998000  0.50000000  1
  C  C50  1  0.17553000  0.22675000  0.76960000  1
  C  C51  1  0.82467000  0.77321000  0.23044000  1
  C  C52  1  0.28491000  0.17540000  0.71737000  1
  C  C53  1  0.71532000  0.82500000  0.28235000  1
  C  C54  1  0.27702000  0.11801000  0.60141000  1
  C  C55  1  0.72297000  0.88189000  0.39858000  1
  C  C56  1  0.15866000  0.11302000  0.53841000  1
  C  C57  1  0.84102000  0.88593000  0.46216000  1
  C  C58  1  0.05028000  0.16691000  0.58986000  1
  C  C59  1  0.94935000  0.83166000  0.41101000  1
  C  C60  1  0.05849000  0.22296000  0.70564000  1
  C  C61  1  0.94140000  0.77608000  0.29496000  1
  C  C62  1  0.39439000  0.93271000  0.54052000  1
  C  C63  1  0.60560000  0.06727000  0.45935000  1
  N  N64  1  0.18641000  0.50001000  0.49999000  1
  N  N65  1  0.81359000  0.49999000  0.50001000  1
  O  O66  1  0.60581000  0.49999000  0.31965000  1
  O  O67  1  0.39419000  0.50001000  0.68035000  1
  O  O68  1  0.39419000  0.49999000  0.31964000  1
  O  O69  1  0.60581000  0.50001000  0.68036000  1
  O  O70  1  0.60581000  0.31964000  0.50001000  1
  O  O71  1  0.39419000  0.68036000  0.49999000  1
  O  O72  1  0.39419000  0.31965000  0.50001000  1
  O  O73  1  0.60581000  0.68035000  0.49999000  1
  F  F74  1  0.14869000  0.05620000  0.42735000  1
  F  F75  1  0.85070000  0.94211000  0.57358000  1
  F  F76  1  0.34529000  0.23385000  0.16307000  1
  F  F77  1  0.65529000  0.76730000  0.83964000  1
