# generated using pymatgen
data_H26C45(NO)6
_symmetry_space_group_name_H-M   'P 1'
_cell_length_a   19.53915000
_cell_length_b   33.84271393
_cell_length_c   34.13160000
_cell_angle_alpha   90.00000000
_cell_angle_beta   90.00000000
_cell_angle_gamma   89.99991535
_symmetry_Int_Tables_number   1
_chemical_formula_structural   H26C45(NO)6
_chemical_formula_sum   'H156 C270 N36 O36'
_cell_volume   22569.78890977
_cell_formula_units_Z   6
loop_
 _symmetry_equiv_pos_site_id
 _symmetry_equiv_pos_as_xyz
  1  'x, y, z'
loop_
 _atom_site_type_symbol
 _atom_site_label
 _atom_site_symmetry_multiplicity
 _atom_site_fract_x
 _atom_site_fract_y
 _atom_site_fract_z
 _atom_site_occupancy
  C  1  1  0.90807800  0.43059500  0.02543900  1
  C  2  1  0.90167600  0.38899600  0.02798600  1
  C  3  1  0.82503500  0.38892500  0.96804800  1
  C  4  1  0.81685200  0.43035800  0.97136500  1
  C  5  1  0.77398800  0.44995500  0.94394200  1
  C  6  1  0.74611600  0.43091700  0.91055300  1
  C  7  1  0.76096800  0.39026100  0.90622000  1
  C  8  1  0.79625300  0.36919600  0.93548000  1
  C  9  1  0.92969200  0.36920500  0.06073400  1
  C  10  1  0.96148800  0.39042900  0.09116600  1
  C  11  1  0.97414600  0.43142800  0.08786800  1
  C  12  1  0.94865700  0.45042200  0.05383300  1
  C  13  1  0.90751600  0.47813200  0.97135900  1
  C  14  1  0.40385800  0.01920100  0.96712800  1
  C  15  1  0.32523600  0.01958600  0.02630500  1
  C  16  1  0.81630000  0.47786900  0.02546300  1
  C  17  1  0.29641200  0.03964200  0.05867700  1
  C  18  1  0.26406100  0.01868000  0.08911200  1
  C  19  1  0.75022700  0.47706500  0.08789200  1
  C  20  1  0.77574800  0.45806000  0.05387700  1
  C  21  1  0.95043600  0.45855000  0.94395900  1
  C  22  1  0.97816900  0.47759100  0.91053000  1
  C  23  1  0.47208700  0.01772200  0.90674100  1
  C  24  1  0.43490400  0.03883900  0.93519000  1
  C  37  1  0.86218600  0.45424800  0.99842500  1
  C  38  1  0.36340100  0.04235300  0.99606100  1
  C  41  1  0.86436300  0.36596300  0.99761600  1
  C  44  1  0.00224800  0.45496600  0.11899000  1
  C  45  1  0.71170800  0.45410600  0.88128700  1
  C  46  1  0.72198500  0.45353600  0.11898400  1
  C  47  1  0.01251900  0.45440800  0.88124000  1
  C  52  1  0.62488200  0.23874900  0.69234500  1
  C  53  1  0.69031500  0.25657000  0.69475000  1
  C  54  1  0.72875000  0.21833900  0.63474700  1
  C  55  1  0.67082900  0.19343200  0.63811000  1
  C  56  1  0.66292400  0.16219200  0.61069300  1
  C  57  1  0.70526200  0.15788100  0.57723400  1
  C  58  1  0.75876200  0.18566900  0.57288000  1
  C  59  1  0.77262400  0.21389100  0.60211700  1
  C  60  1  0.70590700  0.28058800  0.72742600  1
  C  61  1  0.65821000  0.28585000  0.75788500  1
  C  62  1  0.59048200  0.27149600  0.75470000  1
  C  63  1  0.57488700  0.24902400  0.72079000  1
  C  64  1  0.55374100  0.21458400  0.63845300  1
  C  65  1  0.49586900  0.18962000  0.63525700  1
  C  66  1  0.53567400  0.15079500  0.69471800  1
  C  67  1  0.60069700  0.16908800  0.69230900  1
  C  68  1  0.52126900  0.12589400  0.72695500  1
  C  69  1  0.56937900  0.12055000  0.75723200  1
  C  70  1  0.63629300  0.13620000  0.75442200  1
  C  71  1  0.65113200  0.15891500  0.72055000  1
  C  72  1  0.56131500  0.24589500  0.61107700  1
  C  73  1  0.51868800  0.25026600  0.57774400  1
  C  74  1  0.46503400  0.22253900  0.57360100  1
  C  75  1  0.45156400  0.19421700  0.60282300  1
  C  88  1  0.61250200  0.20397300  0.66534600  1
  C  89  1  0.48189800  0.15814800  0.66467500  1
  C  92  1  0.74346000  0.24950300  0.66431500  1
  C  95  1  0.54108100  0.27387600  0.78580100  1
  C  96  1  0.68770900  0.12901600  0.54803200  1
  C  97  1  0.68512300  0.13536000  0.78594700  1
  C  98  1  0.53622700  0.27909000  0.54845700  1
  C  103  1  0.05362900  0.19306200  0.35873500  1
  C  104  1  0.99445800  0.21708300  0.36129000  1
  C  105  1  0.03266500  0.25541800  0.30134600  1
  C  106  1  0.09889700  0.23878300  0.30465900  1
  C  107  1  0.14974300  0.25044000  0.27725900  1
  C  108  1  0.13514700  0.27392200  0.24388700  1
  C  109  1  0.06675900  0.28686700  0.23956000  1
  C  110  1  0.01747000  0.27966000  0.26876800  1
  C  111  1  0.95080300  0.21300800  0.39406100  1
  C  112  1  0.96667900  0.18647500  0.42447800  1
  C  113  1  0.02190200  0.15968900  0.42119100  1
  C  114  1  0.06305400  0.16283900  0.38711700  1
  C  115  1  0.12525300  0.16956500  0.30465600  1
  C  116  1  0.19151600  0.15295900  0.30138400  1
  C  117  1  0.22966200  0.19134700  0.36131400  1
  C  118  1  0.17042300  0.21532100  0.35877400  1
  C  119  1  0.27338200  0.19547200  0.39405200  1
  C  120  1  0.25747500  0.22199000  0.42447800  1
  C  121  1  0.20223100  0.24876300  0.42120500  1
  C  122  1  0.16099800  0.24552900  0.38717000  1
  C  123  1  0.07445400  0.15786200  0.27724100  1
  C  124  1  0.08918800  0.13443800  0.24383600  1
  C  125  1  0.15760400  0.12153500  0.23956400  1
  C  126  1  0.20678800  0.12868500  0.26884100  1
  C  139  1  0.11206400  0.20417500  0.33172200  1
  C  140  1  0.24560600  0.16118300  0.33094600  1
  C  143  1  0.97855800  0.24724700  0.33091100  1
  C  146  1  0.04312500  0.13382000  0.45228200  1
  C  147  1  0.18725300  0.27964900  0.21471500  1
  C  148  1  0.18102800  0.27461600  0.45232000  1
  C  149  1  0.03721100  0.12872900  0.21456400  1
  C  154  1  0.07940100  0.41068800  0.15745200  1
  C  155  1  0.09364000  0.40054100  0.19687200  1
  C  156  1  0.13164700  0.36706800  0.20646500  1
  C  157  1  0.15532600  0.34048400  0.17764600  1
  C  158  1  0.14518000  0.35188100  0.13806900  1
  C  159  1  0.10933500  0.38664400  0.12816700  1
  C  164  1  0.10588000  0.39917900  0.25807600  1
  C  170  1  0.56889900  0.33466000  0.82417600  1
  C  171  1  0.57704500  0.34685400  0.86359400  1
  C  172  1  0.60823100  0.38260200  0.87317100  1
  C  173  1  0.63621500  0.40773900  0.84433900  1
  C  174  1  0.62414600  0.39696600  0.80476500  1
  C  175  1  0.58992700  0.36165200  0.79488000  1
  C  180  1  0.57300100  0.35366800  0.92479500  1
  C  186  1  0.93819800  0.11745500  0.49083300  1
  C  187  1  0.91585900  0.11542500  0.53025400  1
  C  188  1  0.84665300  0.11311800  0.53984600  1
  C  189  1  0.79493800  0.11451700  0.51102600  1
  C  190  1  0.81710400  0.11387300  0.47144900  1
  C  191  1  0.88717600  0.11445300  0.46154900  1
  C  196  1  0.90770100  0.11000600  0.59146100  1
  C  202  1  0.14668000  0.99848000  0.15642800  1
  C  203  1  0.13206600  0.00817900  0.19593500  1
  C  204  1  0.09355700  0.04138400  0.20579700  1
  C  205  1  0.06969400  0.06815500  0.17720700  1
  C  206  1  0.08014900  0.05718100  0.13753900  1
  C  207  1  0.11653500  0.02268200  0.12735000  1
  C  212  1  0.11928600  0.00885200  0.25714100  1
  C  218  1  0.66134000  0.07478100  0.82564600  1
  C  219  1  0.65366300  0.06319400  0.86529300  1
  C  220  1  0.62551100  0.02678800  0.87550900  1
  C  221  1  0.08801400  0.50077500  0.84429800  1
  C  222  1  0.10005700  0.51156300  0.80472700  1
  C  223  1  0.64359100  0.04652000  0.79683700  1
  C  228  1  0.65602500  0.05814000  0.92670800  1
  C  234  1  0.28604700  0.29104000  0.49078600  1
  C  235  1  0.30827200  0.29306300  0.53023100  1
  C  236  1  0.37746400  0.29517300  0.53989600  1
  C  237  1  0.42925900  0.29356800  0.51114000  1
  C  238  1  0.40722600  0.29427700  0.47153700  1
  C  239  1  0.33718200  0.29389900  0.46155500  1
  C  244  1  0.31629000  0.29858100  0.59143500  1
  C  250  1  0.41008600  0.93035900  0.02460900  1
  C  251  1  0.40301200  0.88880800  0.02731200  1
  C  252  1  0.32677000  0.88886400  0.96717800  1
  C  253  1  0.31970200  0.93038900  0.97010800  1
  C  254  1  0.27693700  0.95007700  0.94271100  1
  C  255  1  0.24747200  0.93092400  0.90983200  1
  C  256  1  0.26132800  0.89011400  0.90580100  1
  C  257  1  0.29693800  0.86907600  0.93495900  1
  C  258  1  0.43018300  0.86905800  0.06032200  1
  C  259  1  0.46169000  0.89030000  0.09084700  1
  C  260  1  0.47491900  0.93122800  0.08741900  1
  C  261  1  0.45045400  0.95015400  0.05311900  1
  C  262  1  0.41112800  0.97771900  0.97045100  1
  C  263  1  0.89929000  0.51956500  0.96805100  1
  C  264  1  0.82266500  0.51947600  0.02799700  1
  C  265  1  0.31886800  0.97797400  0.02405300  1
  C  266  1  0.79461800  0.53928000  0.06073400  1
  C  267  1  0.76279100  0.51807300  0.09116500  1
  C  268  1  0.25176100  0.97762200  0.08619300  1
  C  269  1  0.27779600  0.95839800  0.05240400  1
  C  270  1  0.45521000  0.95796300  0.94377200  1
  C  271  1  0.48622000  0.97700400  0.91126800  1
  C  272  1  0.96328900  0.51824400  0.90620200  1
  C  273  1  0.92802800  0.53930000  0.93547400  1
  C  286  1  0.36495400  0.95412500  0.99729400  1
  C  287  1  0.85993400  0.54251500  0.99761300  1
  C  290  1  0.36560400  0.86583700  0.99691900  1
  C  293  1  0.50245500  0.95483700  0.11863700  1
  C  294  1  0.21216800  0.95407500  0.88085000  1
  C  295  1  0.22350100  0.95425200  0.11745000  1
  C  296  1  0.52364800  0.95382400  0.88316800  1
  C  301  1  0.12464300  0.73900300  0.69212500  1
  C  302  1  0.19022900  0.75662000  0.69467100  1
  C  303  1  0.22864400  0.71833100  0.63472900  1
  C  304  1  0.17059100  0.69351100  0.63804600  1
  C  305  1  0.16271100  0.66224800  0.61065500  1
  C  306  1  0.20516900  0.65786300  0.57724900  1
  C  307  1  0.25874000  0.68560900  0.57291800  1
  C  308  1  0.27260800  0.71382500  0.60214900  1
  C  309  1  0.20591600  0.78053400  0.72741200  1
  C  310  1  0.15820200  0.78581100  0.75785300  1
  C  311  1  0.09038300  0.77163100  0.75456600  1
  C  312  1  0.07463100  0.74939600  0.72053000  1
  C  313  1  0.05362600  0.71496600  0.63803400  1
  C  314  1  0.99557400  0.69014800  0.63472600  1
  C  315  1  0.03396900  0.65188300  0.69468300  1
  C  316  1  0.09956000  0.66949100  0.69213400  1
  C  317  1  0.01825200  0.62801400  0.72744700  1
  C  318  1  0.06598200  0.62270100  0.75787000  1
  C  319  1  0.13380600  0.63686900  0.75457400  1
  C  320  1  0.14958900  0.65907800  0.72052100  1
  C  321  1  0.06155900  0.74620100  0.61062000  1
  C  322  1  0.01906500  0.75060400  0.57723100  1
  C  323  1  0.96547000  0.72287300  0.57291300  1
  C  324  1  0.95162800  0.69464500  0.60213800  1
  C  337  1  0.11210500  0.70424300  0.66510600  1
  C  338  1  0.98077900  0.65901000  0.66430000  1
  C  341  1  0.24341600  0.74948700  0.66428800  1
  C  344  1  0.04104200  0.77389100  0.78570100  1
  C  345  1  0.18767500  0.62899200  0.54803800  1
  C  346  1  0.18315500  0.63458800  0.78570100  1
  C  347  1  0.03653200  0.77951100  0.54805000  1
  C  352  1  0.55364700  0.69310600  0.35876800  1
  C  353  1  0.49445800  0.71711400  0.36131700  1
  C  354  1  0.53265700  0.75545900  0.30137500  1
  C  355  1  0.59889900  0.73884100  0.30469500  1
  C  356  1  0.64973900  0.75049800  0.27729100  1
  C  357  1  0.63512800  0.77396500  0.24391300  1
  C  358  1  0.56673200  0.78690200  0.23958400  1
  C  359  1  0.51744600  0.77969200  0.26879200  1
  C  360  1  0.45079100  0.71301900  0.39407800  1
  C  361  1  0.46666900  0.68648100  0.42449300  1
  C  362  1  0.52191000  0.65970400  0.42120500  1
  C  363  1  0.56307700  0.66287500  0.38714000  1
  C  364  1  0.62523600  0.66962400  0.30468000  1
  C  365  1  0.69149100  0.65301500  0.30137500  1
  C  366  1  0.72967300  0.69137100  0.36132200  1
  C  367  1  0.67044700  0.71535600  0.35879100  1
  C  368  1  0.77338900  0.69548200  0.39406300  1
  C  369  1  0.75748900  0.72199200  0.42449900  1
  C  370  1  0.70224600  0.74876900  0.42122900  1
  C  371  1  0.66103000  0.74556000  0.38719000  1
  C  372  1  0.57440000  0.65795800  0.27727900  1
  C  373  1  0.58911500  0.63459400  0.24384100  1
  C  374  1  0.65751400  0.62167000  0.23952600  1
  C  375  1  0.70672400  0.62877000  0.26880400  1
  C  388  1  0.61207100  0.70422800  0.33175200  1
  C  389  1  0.74559300  0.66121100  0.33094000  1
  C  392  1  0.47854700  0.74727400  0.33093700  1
  C  395  1  0.54312800  0.63382600  0.45228800  1
  C  396  1  0.68723500  0.77969200  0.21474300  1
  C  397  1  0.68101500  0.77459800  0.45235600  1
  C  398  1  0.53713500  0.62897700  0.21457200  1
  C  403  1  0.57930600  0.91064400  0.15733400  1
  C  404  1  0.59351800  0.90055100  0.19677000  1
  C  405  1  0.63154500  0.86710200  0.20641200  1
  C  406  1  0.65525600  0.84048200  0.17763100  1
  C  407  1  0.64511800  0.85181600  0.13803900  1
  C  408  1  0.60926100  0.88656000  0.12808800  1
  C  413  1  0.60574200  0.89927700  0.25797700  1
  C  419  1  0.06883700  0.83462200  0.82414600  1
  C  420  1  0.07697000  0.84684300  0.86355900  1
  C  421  1  0.10817800  0.88259100  0.87311600  1
  C  422  1  0.13616200  0.90769600  0.84426300  1
  C  423  1  0.12405300  0.89692200  0.80469800  1
  C  424  1  0.08985600  0.86160000  0.79483300  1
  C  429  1  0.07301600  0.85369300  0.92476300  1
  C  435  1  0.43819900  0.61744700  0.49083300  1
  C  436  1  0.41586400  0.61541400  0.53025400  1
  C  437  1  0.34665800  0.61310100  0.53984900  1
  C  438  1  0.29493700  0.61450400  0.51103100  1
  C  439  1  0.31710200  0.61386600  0.47145500  1
  C  440  1  0.38717100  0.61444800  0.46155200  1
  C  445  1  0.40771400  0.60999500  0.59146100  1
  C  451  1  0.64486300  0.49784700  0.15742800  1
  C  452  1  0.63065000  0.50800900  0.19684800  1
  C  453  1  0.59264600  0.54148100  0.20643600  1
  C  454  1  0.56895300  0.56805700  0.17761200  1
  C  455  1  0.57908300  0.55665100  0.13803600  1
  C  456  1  0.61492400  0.52188200  0.12813900  1
  C  461  1  0.61840400  0.50937700  0.25805100  1
  C  467  1  0.15531400  0.57386300  0.82414600  1
  C  468  1  0.14719300  0.56165400  0.86355900  1
  C  469  1  0.11601000  0.52590300  0.87313300  1
  C  470  1  0.60039800  0.00024700  0.84706600  1
  C  471  1  0.61274500  0.01035400  0.80734100  1
  C  472  1  0.13425600  0.54688200  0.79484500  1
  C  477  1  0.15125300  0.55482800  0.92476300  1
  C  483  1  0.78606500  0.79108300  0.49075400  1
  C  484  1  0.80839600  0.79313900  0.53017500  1
  C  485  1  0.87760500  0.79540000  0.53977300  1
  C  486  1  0.92932800  0.79393100  0.51095500  1
  C  487  1  0.90716700  0.79454000  0.47137600  1
  C  488  1  0.83709700  0.79400500  0.46147000  1
  C  493  1  0.81654700  0.79860900  0.59137600  1
  H  25  1  0.48803500  0.03266400  0.88245600  1
  H  26  1  0.42733300  0.06849700  0.93123200  1
  H  27  1  0.30359800  0.06943100  0.06180400  1
  H  28  1  0.25136300  0.03385200  0.11389900  1
  H  29  1  0.77079600  0.42805900  0.05141000  1
  H  30  1  0.95677000  0.42870600  0.94703600  1
  H  31  1  0.76755500  0.47978700  0.94707100  1
  H  32  1  0.74689400  0.37534800  0.88152400  1
  H  33  1  0.80462000  0.33960300  0.93157800  1
  H  34  1  0.95355200  0.48042500  0.05138900  1
  H  35  1  0.92236400  0.33945500  0.06410800  1
  H  36  1  0.97373100  0.37548400  0.11616800  1
  H  39  1  0.39913500  0.06226900  0.01083700  1
  H  40  1  0.32600000  0.06035100  0.98026600  1
  H  42  1  0.82804300  0.34624600  0.01218200  1
  H  43  1  0.90221800  0.34775900  0.98241600  1
  H  76  1  0.43536500  0.22216200  0.54900800  1
  H  77  1  0.41131900  0.17524400  0.59903200  1
  H  78  1  0.47350900  0.11388700  0.73009800  1
  H  79  1  0.55377700  0.10617600  0.78194800  1
  H  80  1  0.69803700  0.17215200  0.71825600  1
  H  81  1  0.60278300  0.26408900  0.61414700  1
  H  82  1  0.62144300  0.14402600  0.61384500  1
  H  83  1  0.78812800  0.18610500  0.54817000  1
  H  84  1  0.81282100  0.23288000  0.59822600  1
  H  85  1  0.52755700  0.23630100  0.71842900  1
  H  86  1  0.75411200  0.29194800  0.73071400  1
  H  87  1  0.67447700  0.29957700  0.78281800  1
  H  90  1  0.43438200  0.16617900  0.67961700  1
  H  91  1  0.47342700  0.13025700  0.64925000  1
  H  93  1  0.79127300  0.24127300  0.67883800  1
  H  94  1  0.75167400  0.27754500  0.64911200  1
  H  127  1  0.17303000  0.10707000  0.21487500  1
  H  128  1  0.25538200  0.11809300  0.26496200  1
  H  129  1  0.31438200  0.17695200  0.39738600  1
  H  130  1  0.28600300  0.22062000  0.44948400  1
  H  131  1  0.11839300  0.26293400  0.38471700  1
  H  132  1  0.02652200  0.16961700  0.28030100  1
  H  133  1  0.19771800  0.23875000  0.28039600  1
  H  134  1  0.05146300  0.30142100  0.21489300  1
  H  135  1  0.96895100  0.29038100  0.26492300  1
  H  136  1  0.10566900  0.14543800  0.38469100  1
  H  137  1  0.90977800  0.23151300  0.39739500  1
  H  138  1  0.93816200  0.18784900  0.44948700  1
  H  141  1  0.25707100  0.13317300  0.34551300  1
  H  142  1  0.29182100  0.17103500  0.31574600  1
  H  144  1  0.96715200  0.27527100  0.34546900  1
  H  145  1  0.93231800  0.23742100  0.31572000  1
  H  160  1  0.10519000  0.39420600  0.09928100  1
  H  161  1  0.16445200  0.33483100  0.11589700  1
  H  165  1  0.10308700  0.40642100  0.28707100  1
  H  167  1  0.23011500  0.30243400  0.16704800  1
  H  169  1  0.05050200  0.46568300  0.16897500  1
  H  176  1  0.58061600  0.35579300  0.76600100  1
  H  177  1  0.64003300  0.41513200  0.78258900  1
  H  181  1  0.56354900  0.34865400  0.95379200  1
  H  183  1  0.65576100  0.46417600  0.83375900  1
  H  185  1  0.50075500  0.29278300  0.83570500  1
  H  192  1  0.90059200  0.11273100  0.43266400  1
  H  193  1  0.78189800  0.11272000  0.44927900  1
  H  197  1  0.91996400  0.10779900  0.62045800  1
  H  199  1  0.70050200  0.09606800  0.50045200  1
  H  201  1  0.03517900  0.10452400  0.50238500  1
  H  208  1  0.12077200  0.01538500  0.09840500  1
  H  209  1  0.06068100  0.07434100  0.11550900  1
  H  213  1  0.12191300  0.00130800  0.28606600  1
  H  215  1  0.99422400  0.10583800  0.16697600  1
  H  217  1  0.67363100  0.44283100  0.16894200  1
  H  224  1  0.65277500  0.05208400  0.76788200  1
  H  225  1  0.08415000  0.49340300  0.78254800  1
  H  229  1  0.66366600  0.06428500  0.95566700  1
  H  231  1  0.06841900  0.44434600  0.83369500  1
  H  233  1  0.72539100  0.11879300  0.83666600  1
  H  240  1  0.32386500  0.29564100  0.43265800  1
  H  241  1  0.44251400  0.29532900  0.44940200  1
  H  245  1  0.30395600  0.30088300  0.62041400  1
  H  247  1  0.52384900  0.31173000  0.50062800  1
  H  249  1  0.18916000  0.30430800  0.50218300  1
  H  274  1  0.97730900  0.53315100  0.88149200  1
  H  275  1  0.91962400  0.56889000  0.93156900  1
  H  276  1  0.80188600  0.56904100  0.06405700  1
  H  277  1  0.75048800  0.53303600  0.11614600  1
  H  278  1  0.27286800  0.92838800  0.05010700  1
  H  279  1  0.46095200  0.92809600  0.94698000  1
  H  280  1  0.27118200  0.97997100  0.94567900  1
  H  281  1  0.24623400  0.87503900  0.88141000  1
  H  282  1  0.30437400  0.83936200  0.93133700  1
  H  283  1  0.45578100  0.98012500  0.05057800  1
  H  284  1  0.42232600  0.83936800  0.06382100  1
  H  285  1  0.47328600  0.87544300  0.11600800  1
  H  288  1  0.89623300  0.56225400  0.01216900  1
  H  289  1  0.82205100  0.56069900  0.98241300  1
  H  291  1  0.32890400  0.84635900  0.01149200  1
  H  292  1  0.40326600  0.84738400  0.98186300  1
  H  325  1  0.93599600  0.72248600  0.54824300  1
  H  326  1  0.91130200  0.67573700  0.59829700  1
  H  327  1  0.96998900  0.61675000  0.73078100  1
  H  328  1  0.04968000  0.60910300  0.78287100  1
  H  329  1  0.19701100  0.67167100  0.71810700  1
  H  330  1  0.10307000  0.76435000  0.61375200  1
  H  331  1  0.12113900  0.64414400  0.61376900  1
  H  332  1  0.28816600  0.68601700  0.54822900  1
  H  333  1  0.31287400  0.73277200  0.59828800  1
  H  334  1  0.02718000  0.73684100  0.71809200  1
  H  335  1  0.25420400  0.79175300  0.73077200  1
  H  336  1  0.17450700  0.79941200  0.78285000  1
  H  339  1  0.93303300  0.66731600  0.67885300  1
  H  340  1  0.97241100  0.63097400  0.64910900  1
  H  342  1  0.29116500  0.74119600  0.67884700  1
  H  343  1  0.25177100  0.77751700  0.64908500  1
  H  376  1  0.67286300  0.60719400  0.21482300  1
  H  377  1  0.75530300  0.61816200  0.26490800  1
  H  378  1  0.81438200  0.67695500  0.39739200  1
  H  379  1  0.78602100  0.72062100  0.44950200  1
  H  380  1  0.61842800  0.76297000  0.38474100  1
  H  381  1  0.52647000  0.66971200  0.28035700  1
  H  382  1  0.69771500  0.73881100  0.28043000  1
  H  383  1  0.55142900  0.80144200  0.21491200  1
  H  384  1  0.46892000  0.79040000  0.26494300  1
  H  385  1  0.60569900  0.64548300  0.38471100  1
  H  386  1  0.40975300  0.73151300  0.39740900  1
  H  387  1  0.43814100  0.68784000  0.44949600  1
  H  390  1  0.75703700  0.63319300  0.34549500  1
  H  391  1  0.79181400  0.67105700  0.31574300  1
  H  393  1  0.46711400  0.77529500  0.34549500  1
  H  394  1  0.43231800  0.73743700  0.31574000  1
  H  409  1  0.60518400  0.89408300  0.09919200  1
  H  410  1  0.66441900  0.83474600  0.11589200  1
  H  414  1  0.60294100  0.90656100  0.28696100  1
  H  416  1  0.73011800  0.80247100  0.16708100  1
  H  418  1  0.54995600  0.96558700  0.16884600  1
  H  425  1  0.08053200  0.85573200  0.76595700  1
  H  426  1  0.13990000  0.91509700  0.78251300  1
  H  430  1  0.06361600  0.84869000  0.95376800  1
  H  432  1  0.15487400  0.96421900  0.83385000  1
  H  434  1  0.00088200  0.79263700  0.83571000  1
  H  441  1  0.40058200  0.61273100  0.43266700  1
  H  442  1  0.28189200  0.61271600  0.44928500  1
  H  446  1  0.41998200  0.60779100  0.62045800  1
  H  448  1  0.20050700  0.59605100  0.50046100  1
  H  450  1  0.53517700  0.60451100  0.50238000  1
  H  457  1  0.61905500  0.51430800  0.09925600  1
  H  458  1  0.55978800  0.57368900  0.11586300  1
  H  462  1  0.62118800  0.50213400  0.28704600  1
  H  464  1  0.49406800  0.60605000  0.16703600  1
  H  466  1  0.17586300  0.94351400  0.16760000  1
  H  473  1  0.14353900  0.55274500  0.76596600  1
  H  474  1  0.59884600  0.99126700  0.78549000  1
  H  478  1  0.16070900  0.55983400  0.95376000  1
  H  480  1  0.58487100  0.94320700  0.83790200  1
  H  482  1  0.22333200  0.61581600  0.83569000  1
  H  489  1  0.82368700  0.79571300  0.43258500  1
  H  490  1  0.94238200  0.79564200  0.44920900  1
  H  494  1  0.80428100  0.80085400  0.62037000  1
  H  496  1  0.02379600  0.81230100  0.50035800  1
  H  498  1  0.68916400  0.80424600  0.50224200  1
  N  162  1  0.13934800  0.36710700  0.24522400  1
  N  166  1  0.19292800  0.30722700  0.18563000  1
  N  168  1  0.04394900  0.44479900  0.14954200  1
  N  178  1  0.60434400  0.38644300  0.91193000  1
  N  182  1  0.66725400  0.44317900  0.85231400  1
  N  184  1  0.53542600  0.29988700  0.81628900  1
  N  194  1  0.84286000  0.10926100  0.57860800  1
  N  198  1  0.72626800  0.11230300  0.51900900  1
  N  200  1  0.00709500  0.11817500  0.48292300  1
  N  210  1  0.08554900  0.04092900  0.24453400  1
  N  214  1  0.03158500  0.10114500  0.18547100  1
  N  216  1  0.68026100  0.46371800  0.14952100  1
  N  226  1  0.62816500  0.02411400  0.91440000  1
  N  230  1  0.05696000  0.46533500  0.85226400  1
  N  232  1  0.69181100  0.11031000  0.81715900  1
  N  242  1  0.38117600  0.29910400  0.57864900  1
  N  246  1  0.49791000  0.29562600  0.51922600  1
  N  248  1  0.21717600  0.29048800  0.48280500  1
  N  411  1  0.63923400  0.86719300  0.24517200  1
  N  415  1  0.69290800  0.80725700  0.18565000  1
  N  417  1  0.54376800  0.94471400  0.14936500  1
  N  427  1  0.10438500  0.88645300  0.91187500  1
  N  431  1  0.16702500  0.94317400  0.85221700  1
  N  433  1  0.03544300  0.79981700  0.81625900  1
  N  443  1  0.34287200  0.60924400  0.57861100  1
  N  447  1  0.22626100  0.61228800  0.51902100  1
  N  449  1  0.50709500  0.61817100  0.48292300  1
  N  459  1  0.58493600  0.54144900  0.24519400  1
  N  463  1  0.53130700  0.60129300  0.18559400  1
  N  465  1  0.18224500  0.96446400  0.14821300  1
  N  475  1  0.11991400  0.52205300  0.91188900  1
  N  479  1  0.57094500  0.96449600  0.85556900  1
  N  481  1  0.18872600  0.60865900  0.81625600  1
  N  491  1  0.88139400  0.79929100  0.57852900  1
  N  495  1  0.99800900  0.79611200  0.51894500  1
  N  497  1  0.71717400  0.79045600  0.48284100  1
  O  48  1  0.72927200  0.49288300  0.87981900  1
  O  49  1  0.97905000  0.49272300  0.12100600  1
  O  50  1  0.74509300  0.41575800  0.12100000  1
  O  51  1  0.99490100  0.41564000  0.87975500  1
  O  99  1  0.62071600  0.11850700  0.54650300  1
  O  100  1  0.49592500  0.24345900  0.78784600  1
  O  101  1  0.72754500  0.16707000  0.78798300  1
  O  102  1  0.60330500  0.28940600  0.54680500  1
  O  150  1  0.23633300  0.25131000  0.21306500  1
  O  151  1  0.11141500  0.12674700  0.45440900  1
  O  152  1  0.11285200  0.28210200  0.45424500  1
  O  153  1  0.98755200  0.15674400  0.21320000  1
  O  163  1  0.07533800  0.42127500  0.22946500  1
  O  179  1  0.55512400  0.32733800  0.89619400  1
  O  195  1  0.95611100  0.11424800  0.56284900  1
  O  211  1  0.64894300  0.48727400  0.22944300  1
  O  227  1  0.67250000  0.08422400  0.89760300  1
  O  243  1  0.26793000  0.29441400  0.56278400  1
  O  297  1  0.22914000  0.99294300  0.87939100  1
  O  298  1  0.47900600  0.99254700  0.12052800  1
  O  299  1  0.24639100  0.91642400  0.11945900  1
  O  300  1  0.50671900  0.91495900  0.88148600  1
  O  348  1  0.12068700  0.61847500  0.54648500  1
  O  349  1  0.99604100  0.74339700  0.78772300  1
  O  350  1  0.22818400  0.66507000  0.78772300  1
  O  351  1  0.10357700  0.78988600  0.54640300  1
  O  399  1  0.73633500  0.75136400  0.21310600  1
  O  400  1  0.61141700  0.62674900  0.45441500  1
  O  401  1  0.61283600  0.78206100  0.45428900  1
  O  402  1  0.48776100  0.65715100  0.21309400  1
  O  412  1  0.57519200  0.92132900  0.22933300  1
  O  428  1  0.05507500  0.82735000  0.89617900  1
  O  444  1  0.45612100  0.61423800  0.56284900  1
  O  460  1  0.15027700  0.98716300  0.22837600  1
  O  476  1  0.16911700  0.58116500  0.89616500  1
  O  492  1  0.76813300  0.79438300  0.56276400  1
