# generated using pymatgen
data_H6C10N3
_symmetry_space_group_name_H-M   'P 1'
_cell_length_a   17.39210000
_cell_length_b   19.61680000
_cell_length_c   19.61680000
_cell_angle_alpha   120.00000000
_cell_angle_beta   90.00000000
_cell_angle_gamma   90.00000000
_symmetry_Int_Tables_number   1
_chemical_formula_structural   H6C10N3
_chemical_formula_sum   'H36 C60 N18'
_cell_volume   5796.14156543
_cell_formula_units_Z   6
loop_
 _symmetry_equiv_pos_site_id
 _symmetry_equiv_pos_as_xyz
  1  'x, y, z'
loop_
 _atom_site_type_symbol
 _atom_site_label
 _atom_site_symmetry_multiplicity
 _atom_site_fract_x
 _atom_site_fract_y
 _atom_site_fract_z
 _atom_site_occupancy
  C  1  1  0.99883400  0.39968550  0.48032450  1
  C  2  1  0.94091800  0.41142800  0.53629000  1
  C  3  1  0.94626700  0.37861550  0.58590350  1
  C  4  1  0.00652600  0.32498250  0.57089250  1
  C  5  1  0.06301200  0.30660450  0.51239650  1
  C  6  1  0.06168700  0.34744800  0.46888400  1
  C  9  1  0.99072400  0.44017400  0.43721400  1
  C  10  1  0.92692300  0.42790200  0.38587200  1
  C  11  1  0.92537700  0.46878000  0.34262600  1
  C  12  1  0.98178800  0.52632400  0.35770300  1
  C  13  1  0.04303800  0.54244600  0.41066700  1
  C  14  1  0.04867800  0.49531800  0.44637400  1
  C  23  1  0.33215500  0.97266050  0.50264150  1
  C  24  1  0.27420000  0.01688600  0.49094600  1
  C  25  1  0.27958800  0.09930200  0.52373500  1
  C  26  1  0.33982500  0.13792150  0.57739450  1
  C  27  1  0.39630800  0.09778750  0.59575050  1
  C  28  1  0.39504800  0.01342650  0.55484250  1
  C  31  1  0.32403400  0.88906450  0.46213350  1
  C  32  1  0.26023400  0.85000000  0.47442700  1
  C  33  1  0.25865800  0.76588300  0.43348500  1
  C  34  1  0.31499400  0.72340300  0.37585700  1
  C  35  1  0.37625200  0.76023850  0.35973950  1
  C  36  1  0.38190700  0.84306800  0.40688200  1
  C  45  1  0.66543100  0.42201950  0.92966650  1
  C  46  1  0.60740400  0.36620600  0.88541300  1
  C  47  1  0.61283300  0.31656500  0.80299300  1
  C  48  1  0.67314200  0.33154000  0.76439700  1
  C  49  1  0.72963400  0.39000900  0.80454200  1
  C  50  1  0.72831200  0.43345900  0.88889600  1
  C  53  1  0.65731400  0.46507100  0.01326400  1
  C  54  1  0.59350700  0.51640000  0.05235900  1
  C  55  1  0.59188600  0.55947650  0.13648750  1
  C  56  1  0.64832600  0.54441150  0.17893050  1
  C  57  1  0.70959500  0.49148350  0.14206650  1
  C  58  1  0.71521300  0.45580600  0.05923300  1
  C  67  1  0.79277200  0.48699450  0.31250550  1
  C  69  1  0.76247700  0.47750400  0.18871200  1
  C  71  1  0.88702100  0.44104750  0.20962950  1
  C  72  1  0.86816200  0.45976100  0.28735300  1
  C  75  1  0.12616200  0.71738050  0.41512950  1
  C  77  1  0.09589200  0.60309450  0.42464650  1
  C  79  1  0.22034800  0.66063750  0.46129350  1
  C  80  1  0.20148600  0.71967600  0.44262500  1
  C  83  1  0.45937800  0.58973600  0.18481400  1
  C  85  1  0.42910700  0.71356700  0.29909400  1
  C  87  1  0.55366200  0.69261500  0.24172600  1
  C  88  1  0.53478100  0.61489400  0.18277000  1
  C  91  1  0.81226400  0.39519050  0.63440550  1
  C  93  1  0.78422700  0.39880200  0.75582000  1
  C  95  1  0.91405200  0.39840600  0.71815700  1
  C  96  1  0.89217300  0.39314100  0.64594900  1
  C  99  1  0.14560500  0.13127350  0.50721150  1
  C  101  1  0.11758800  0.24908650  0.50363550  1
  C  103  1  0.24740000  0.21176800  0.50393600  1
  C  104  1  0.22552000  0.14481150  0.50916850  1
  C  107  1  0.47887000  0.26797100  0.77106900  1
  C  109  1  0.45087500  0.14652800  0.65328000  1
  C  111  1  0.58069000  0.18425100  0.69055200  1
  C  112  1  0.55878000  0.25647300  0.75745100  1
  H  7  1  0.89743400  0.45056400  0.54613200  1
  H  8  1  0.00853400  0.29721350  0.60339050  1
  H  15  1  0.97790300  0.55759700  0.32873600  1
  H  16  1  0.09270400  0.50600400  0.48517300  1
  H  19  1  0.10873400  0.34870200  0.37348700  1
  H  20  1  0.15046900  0.28654850  0.39405150  1
  H  21  1  0.83254200  0.35869500  0.33206100  1
  H  22  1  0.87642000  0.33683500  0.39265300  1
  H  29  1  0.23079000  0.98755400  0.45173100  1
  H  30  1  0.34184600  0.19818450  0.60514750  1
  H  37  1  0.31108800  0.66316400  0.34457600  1
  H  38  1  0.42598300  0.87120400  0.39628800  1
  H  41  1  0.44210400  0.91672800  0.55349200  1
  H  42  1  0.48384400  0.99943850  0.61567750  1
  H  43  1  0.16587800  0.86541800  0.54366900  1
  H  44  1  0.20983200  0.94785600  0.56559300  1
  H  51  1  0.56402900  0.35621000  0.91469300  1
  H  52  1  0.67518200  0.29902650  0.70413350  1
  H  59  1  0.64445100  0.57336400  0.23917100  1
  H  60  1  0.75929100  0.41709200  0.03108200  1
  H  63  1  0.77549300  0.52867050  0.98563250  1
  H  64  1  0.81735300  0.50816550  0.90300750  1
  H  65  1  0.49936100  0.57053000  0.03707500  1
  H  66  1  0.54335800  0.51009900  0.95461600  1
  H  73  1  0.77590100  0.50650600  0.36924400  1
  H  74  1  0.94112700  0.42244900  0.18786700  1
  H  81  1  0.10929800  0.75456150  0.39555450  1
  H  82  1  0.27443900  0.65753400  0.47996400  1
  H  89  1  0.44249600  0.53299400  0.14759600  1
  H  90  1  0.60778500  0.71434100  0.24488500  1
  H  97  1  0.79075900  0.38790800  0.58269900  1
  H  98  1  0.97069200  0.39972600  0.73261000  1
  H  105  1  0.12410100  0.08685700  0.51450400  1
  H  106  1  0.30404500  0.22488450  0.50259150  1
  H  113  1  0.45734300  0.31967000  0.81548200  1
  H  114  1  0.63733400  0.16981950  0.67742550  1
  N  17  1  0.11322700  0.32837150  0.40935350  1
  N  18  1  0.87306700  0.37128100  0.37058400  1
  N  39  1  0.44657900  0.97294000  0.57387700  1
  N  40  1  0.20644000  0.89135150  0.53111150  1
  N  61  1  0.77987000  0.49295000  0.92939000  1
  N  62  1  0.53967400  0.53176400  0.01105600  1
  N  68  1  0.74428800  0.49656800  0.26387200  1
  N  70  1  0.83423300  0.44859500  0.16276400  1
  N  76  1  0.07770800  0.65913350  0.40550350  1
  N  78  1  0.16760900  0.60615800  0.45367700  1
  N  84  1  0.41090000  0.63840200  0.24301600  1
  N  86  1  0.50087300  0.73949800  0.29612500  1
  N  92  1  0.76216600  0.39404800  0.68682200  1
  N  94  1  0.86080800  0.40171250  0.77027150  1
  N  100  1  0.09551000  0.18485300  0.50839000  1
  N  102  1  0.19416400  0.26060600  0.50066800  1
  N  108  1  0.42879000  0.21552100  0.71751600  1
  N  110  1  0.52746200  0.13210350  0.64175150  1
