# generated using pymatgen
data_LaH9C15O8
_symmetry_space_group_name_H-M   'P 1'
_cell_length_a   9.51856000
_cell_length_b   9.96435000
_cell_length_c   11.18566000
_cell_angle_alpha   91.84772000
_cell_angle_beta   97.27171000
_cell_angle_gamma   109.91713000
_symmetry_Int_Tables_number   1
_chemical_formula_structural   LaH9C15O8
_chemical_formula_sum   'La2 H18 C30 O16'
_cell_volume   986.20245862
_cell_formula_units_Z   2
loop_
 _symmetry_equiv_pos_site_id
 _symmetry_equiv_pos_as_xyz
  1  'x, y, z'
loop_
 _atom_site_type_symbol
 _atom_site_label
 _atom_site_symmetry_multiplicity
 _atom_site_fract_x
 _atom_site_fract_y
 _atom_site_fract_z
 _atom_site_occupancy
  La  La1  1  0.72299000  0.96415000  0.02645000  1.0
  La  La2  1  0.27700000  0.03585000  0.97356000  1.0
  H  H1  1  0.67422000  0.51240000  0.98210000  1.0
  H  H2  1  0.80253000  0.20715000  0.77958000  1.0
  H  H3  1  0.09728000  0.64784000  0.83987000  1.0
  H  H4  1  0.82694000  0.41640000  0.57751000  1.0
  H  H5  1  0.73920000  0.28517000  0.37222000  1.0
  H  H6  1  0.08389000  0.09710000  0.43133000  1.0
  H  H7  1  0.17230000  0.22822000  0.63761000  1.0
  H  H8  1  0.74051000  0.86712000  0.74230000  1.0
  H  H9  1  0.90637000  0.96474000  0.78940000  1.0
  H  H10  1  0.32578000  0.48760000  0.01790000  1.0
  H  H11  1  0.19747000  0.79286000  0.22043000  1.0
  H  H12  1  0.90272000  0.35216000  0.16014000  1.0
  H  H13  1  0.17306000  0.58360000  0.42249000  1.0
  H  H14  1  0.26079000  0.71483000  0.62779000  1.0
  H  H15  1  0.91610000  0.90290000  0.56868000  1.0
  H  H16  1  0.82769000  0.77179000  0.36239000  1.0
  H  H17  1  0.25949000  0.13289000  0.25770000  1.0
  H  H18  1  0.09363000  0.03527000  0.21061000  1.0
  C  C1  1  0.92288000  0.74177000  0.97623000  1.0
  C  C2  1  0.88928000  0.59521000  0.91787000  1.0
  C  C3  1  0.75351000  0.48751000  0.93122000  1.0
  C  C4  1  0.72376000  0.34728000  0.88368000  1.0
  C  C5  1  0.58583000  0.23253000  0.91014000  1.0
  C  C6  1  0.82473000  0.31614000  0.81616000  1.0
  C  C7  1  0.95514000  0.42691000  0.79753000  1.0
  C  C8  1  0.99135000  0.56513000  0.85070000  1.0
  C  C9  1  0.00425000  0.32843000  0.61846000  1.0
  C  C10  1  0.88188000  0.34586000  0.54507000  1.0
  C  C11  1  0.83347000  0.27315000  0.43106000  1.0
  C  C12  1  0.90529000  0.18266000  0.38892000  1.0
  C  C13  1  0.84450000  0.10136000  0.26936000  1.0
  C  C14  1  0.02986000  0.16906000  0.46271000  1.0
  C  C15  1  0.07979000  0.24141000  0.57732000  1.0
  C  C16  1  0.07711000  0.25823000  0.02378000  1.0
  C  C17  1  0.11071000  0.40479000  0.08214000  1.0
  C  C18  1  0.24649000  0.51250000  0.06879000  1.0
  C  C19  1  0.27624000  0.65272000  0.11633000  1.0
  C  C20  1  0.41417000  0.76747000  0.08986000  1.0
  C  C21  1  0.17526000  0.68386000  0.18384000  1.0
  C  C22  1  0.04486000  0.57310000  0.20247000  1.0
  C  C23  1  0.00865000  0.43488000  0.14931000  1.0
  C  C24  1  0.99574000  0.67157000  0.38155000  1.0
  C  C25  1  0.11812000  0.65415000  0.45493000  1.0
  C  C26  1  0.16653000  0.72686000  0.56895000  1.0
  C  C27  1  0.09471000  0.81734000  0.61108000  1.0
  C  C28  1  0.15550000  0.89865000  0.73064000  1.0
  C  C29  1  0.97014000  0.83094000  0.53729000  1.0
  C  C30  1  0.92021000  0.75859000  0.42268000  1.0
  O  O1  1  0.81469000  0.76776000  0.01616000  1.0
  O  O2  1  0.05579000  0.83306000  0.98374000  1.0
  O  O3  1  0.47274000  0.26592000  0.92886000  1.0
  O  O4  1  0.58316000  0.10196000  0.91550000  1.0
  O  O5  1  0.05929000  0.39932000  0.73220000  1.0
  O  O6  1  0.73002000  0.11846000  0.20679000  1.0
  O  O7  1  0.90377000  0.01336000  0.22852000  1.0
  O  O8  1  0.79923000  0.94728000  0.80031000  1.0
  O  O9  1  0.18531000  0.23224000  0.98385000  1.0
  O  O10  1  0.94421000  0.16695000  0.01626000  1.0
  O  O11  1  0.52726000  0.73408000  0.07114000  1.0
  O  O12  1  0.41683000  0.89805000  0.08450000  1.0
  O  O13  1  0.94071000  0.60069000  0.26780000  1.0
  O  O14  1  0.26998000  0.88154000  0.79322000  1.0
  O  O15  1  0.09622000  0.98665000  0.77149000  1.0
  O  O16  1  0.20077000  0.05272000  0.19970000  1.0
