# generated using pymatgen
data_H7C13N2
_symmetry_space_group_name_H-M   'P 1'
_cell_length_a   9.87233333
_cell_length_b   23.21590000
_cell_length_c   23.21590000
_cell_angle_alpha   60.00000000
_cell_angle_beta   90.00100000
_cell_angle_gamma   90.00000000
_symmetry_Int_Tables_number   1
_chemical_formula_structural   H7C13N2
_chemical_formula_sum   'H42 C78 N12'
_cell_volume   4608.09571301
_cell_formula_units_Z   6
loop_
 _symmetry_equiv_pos_site_id
 _symmetry_equiv_pos_as_xyz
  1  'x, y, z'
loop_
 _atom_site_type_symbol
 _atom_site_label
 _atom_site_symmetry_multiplicity
 _atom_site_fract_x
 _atom_site_fract_y
 _atom_site_fract_z
 _atom_site_occupancy
  C  1  1  0.96078200  0.47053500  0.47344100  1
  C  2  1  0.96520900  0.39927800  0.50894600  1
  C  3  1  0.97954100  0.36390400  0.47382117  1
  C  4  1  0.98501300  0.40091967  0.40370183  1
  C  5  1  0.97555100  0.47091700  0.36662883  1
  C  6  1  0.96368900  0.50604300  0.40214967  1
  C  7  1  0.96434800  0.36562800  0.57919800  1
  C  8  1  0.96352600  0.57629100  0.36856450  1
  C  12  1  0.86947500  0.51728300  0.25457883  1
  C  13  1  0.98542800  0.49929300  0.29654983  1
  C  15  1  0.73418000  0.52833900  0.27471867  1
  C  19  1  0.99435200  0.29403600  0.50277400  1
  C  21  1  0.87128800  0.19565600  0.52158100  1
  C  22  1  0.10908700  0.26879300  0.48635200  1
  C  145  1  0.96468000  0.50608200  0.06280333  1
  C  146  1  0.97796050  0.47102400  0.13334817  1
  C  147  1  0.98346300  0.40092200  0.16654233  1
  C  148  1  0.96441000  0.57632600  0.02613333  1
  C  150  1  0.96421000  0.61114300  0.95636867  1
  C  153  1  0.98525600  0.16351800  0.40409583  1
  C  154  1  0.97630000  0.13043900  0.47413467  1
  C  155  1  0.96424400  0.05980500  0.50910683  1
  C  156  1  0.96442800  0.02298000  0.57935367  1
  C  158  1  0.96489500  0.95321500  0.61408650  1
  C  161  1  0.99344000  0.50003900  0.17416433  1
  C  163  1  0.10879500  0.48457200  0.21526750  1
  C  165  1  0.98639000  0.17195267  0.50271183  1
  C  167  1  0.73641900  0.16386600  0.53389283  1
  C  170  1  0.73667500  0.70701300  0.81579033  1
  C  313  1  0.96038600  0.47050500  0.02711917  1
  C  314  1  0.97490300  0.36375000  0.13366650  1
  C  315  1  0.96332400  0.39920600  0.06299600  1
  C  316  1  0.96369000  0.36557300  0.02637467  1
  C  317  1  0.96049800  0.50622000  0.95561367  1
  C  318  1  0.96369800  0.57751400  0.91974350  1
  C  319  1  0.97533800  0.61298200  0.84907700  1
  C  320  1  0.98393600  0.57578333  0.81622417  1
  C  321  1  0.96478200  0.47063400  0.91993733  1
  C  322  1  0.96112700  0.02417500  0.47344667  1
  C  323  1  0.96547100  0.06008400  0.40217817  1
  C  324  1  0.97968400  0.13058900  0.36692767  1
  C  325  1  0.96479200  0.02364100  0.36837317  1
  C  326  1  0.96120300  0.95267700  0.50901933  1
  C  327  1  0.96432900  0.91705233  0.47335150  1
  C  328  1  0.98547900  0.81335300  0.57834750  1
  C  329  1  0.98016850  0.84627567  0.61552950  1
  C  330  1  0.96562500  0.91676467  0.58028733  1
  C  331  1  0.99491800  0.17169167  0.29707883  1
  C  333  1  0.87071100  0.25094400  0.19904767  1
  C  334  1  0.98552900  0.29367300  0.17536550  1
  C  336  1  0.10936900  0.21350500  0.27172150  1
  C  338  1  0.73555600  0.27022000  0.16754817  1
  C  342  1  0.99490000  0.80514800  0.68539717  1
  C  344  1  0.87149100  0.72604100  0.78387433  1
  C  345  1  0.98595500  0.68306200  0.80739950  1
  C  347  1  0.10914800  0.76308300  0.71058050  1
  C  535  1  0.96074300  0.50624667  0.50922467  1
  C  536  1  0.96365900  0.47074500  0.58051583  1
  C  537  1  0.97537700  0.50588200  0.61603417  1
  C  538  1  0.98491100  0.57588300  0.57895100  1
  C  539  1  0.97942500  0.61288200  0.50883350  1
  C  540  1  0.96510500  0.57750400  0.47371317  1
  C  541  1  0.96350600  0.40049400  0.61410067  1
  C  543  1  0.96416400  0.61116100  0.40346150  1
  C  546  1  0.97841600  0.50568200  0.84940467  1
  C  548  1  0.96411500  0.40038933  0.95660533  1
  C  551  1  0.97646300  0.84642000  0.50831683  1
  C  552  1  0.96439700  0.95387700  0.40310367  1
  C  556  1  0.99376400  0.47669900  0.80854617  1
  C  558  1  0.86958700  0.45948300  0.72815517  1
  C  559  1  0.98543800  0.47750700  0.68610883  1
  C  561  1  0.10888500  0.49233600  0.76727100  1
  C  563  1  0.73425800  0.44837500  0.70809317  1
  C  567  1  0.99423100  0.68275300  0.47984417  1
  C  569  1  0.87129800  0.78119500  0.46091317  1
  C  570  1  0.98645100  0.80489300  0.47975183  1
  C  572  1  0.10924900  0.70806400  0.49600300  1
  C  574  1  0.73644900  0.81300300  0.44861233  1
  H  9  1  0.99144400  0.37535700  0.37823067  1
  H  10  1  0.96882600  0.31485100  0.60624567  1
  H  11  1  0.96811500  0.60335800  0.31780133  1
  H  16  1  0.65852200  0.53891400  0.23636783  1
  H  17  1  0.73777400  0.57059600  0.28297417  1
  H  18  1  0.70170400  0.48426800  0.32045317  1
  H  23  1  0.19446800  0.29694900  0.46712317  1
  H  24  1  0.66105500  0.19151900  0.54479967  1
  H  149  1  0.98986000  0.37554800  0.21757683  1
  H  151  1  0.96931200  0.66189333  0.93265550  1
  H  152  1  0.96903800  0.60342200  0.04980750  1
  H  157  1  0.99159700  0.21455100  0.37861517  1
  H  159  1  0.96982500  0.92938700  0.66485783  1
  H  160  1  0.96954400  0.04654100  0.60653667  1
  H  164  1  0.19423500  0.46554500  0.20616233  1
  H  168  1  0.74139200  0.11351000  0.57634950  1
  H  169  1  0.70254400  0.16171100  0.49027117  1
  H  171  1  0.66171400  0.74580800  0.78817950  1
  H  172  1  0.74215900  0.69914300  0.86612267  1
  H  337  1  0.19459800  0.20467700  0.29994483  1
  H  339  1  0.66056900  0.23147300  0.19525217  1
  H  340  1  0.74021600  0.27831500  0.11711400  1
  H  341  1  0.70141100  0.31584700  0.16563317  1
  H  348  1  0.19414300  0.77174200  0.68224000  1
  H  349  1  0.70191500  0.66132900  0.81801367  1
  H  542  1  0.99138400  0.60146300  0.60440267  1
  H  544  1  0.96823600  0.37342700  0.66485867  1
  H  545  1  0.96863100  0.66193500  0.37641300  1
  H  547  1  0.99028100  0.60115100  0.76518900  1
  H  549  1  0.96877400  0.37329300  0.93293183  1
  H  550  1  0.96855100  0.31481633  0.05010617  1
  H  553  1  0.99172800  0.76231500  0.60381650  1
  H  554  1  0.96953500  0.93031100  0.37592633  1
  H  555  1  0.96955400  0.04747700  0.31759967  1
  H  562  1  0.19454900  0.51103400  0.77661950  1
  H  564  1  0.65868750  0.43775900  0.74649317  1
  H  565  1  0.73786400  0.40612500  0.69982633  1
  H  566  1  0.70164400  0.49243500  0.66238400  1
  H  573  1  0.19419500  0.67970700  0.51570883  1
  H  575  1  0.66102600  0.78533900  0.43775483  1
  H  576  1  0.74141900  0.86334200  0.40612350  1
  H  577  1  0.70265500  0.81520900  0.49221733  1
  N  14  1  0.09755500  0.48192300  0.27460617  1
  N  20  1  0.88026300  0.25615100  0.51810367  1
  N  162  1  0.87863100  0.51406000  0.19743083  1
  N  166  1  0.09789900  0.21181467  0.48429567  1
  N  332  1  0.88028400  0.19390500  0.25951850  1
  N  335  1  0.09753000  0.27261100  0.21485583  1
  N  343  1  0.88085100  0.78305900  0.72338350  1
  N  346  1  0.09742900  0.70404100  0.76751400  1
  N  557  1  0.87889700  0.46265100  0.78533333  1
  N  560  1  0.09765600  0.49487500  0.70799083  1
  N  568  1  0.88016700  0.72064900  0.46449783  1
  N  571  1  0.09786600  0.76496900  0.49819683  1
