# generated using pymatgen
data_MnH16C24N2O5
_symmetry_space_group_name_H-M   'P 1'
_cell_length_a   9.31365000
_cell_length_b   11.80884000
_cell_length_c   13.26925000
_cell_angle_alpha   90.00000000
_cell_angle_beta   89.70276000
_cell_angle_gamma   90.00000000
_symmetry_Int_Tables_number   1
_chemical_formula_structural   MnH16C24N2O5
_chemical_formula_sum   'Mn2 H32 C48 N4 O10'
_cell_volume   1459.37762717
_cell_formula_units_Z   2
loop_
 _symmetry_equiv_pos_site_id
 _symmetry_equiv_pos_as_xyz
  1  'x, y, z'
loop_
 _atom_site_type_symbol
 _atom_site_label
 _atom_site_symmetry_multiplicity
 _atom_site_fract_x
 _atom_site_fract_y
 _atom_site_fract_z
 _atom_site_occupancy
  Mn  Mn1  1  0.25000000  0.05313000  0.00000000  1.0
  Mn  Mn2  1  0.75000000  0.94687000  0.00000000  1.0
  H  H1  1  0.58521000  0.78854000  0.74464000  1.0
  H  H2  1  0.48033000  0.69753000  0.59086000  1.0
  H  H3  1  0.14713000  0.95035000  0.58692000  1.0
  H  H4  1  0.25099000  0.03786000  0.74206000  1.0
  H  H5  1  0.35970000  0.84540000  0.13521000  1.0
  H  H6  1  0.35981000  0.63604000  0.14339000  1.0
  H  H7  1  0.44212000  0.47037000  0.09072000  1.0
  H  H8  1  0.43410000  0.25972000  0.08555000  1.0
  H  H9  1  0.91479000  0.78854000  0.25536000  1.0
  H  H10  1  0.01967000  0.69753000  0.40914000  1.0
  H  H11  1  0.35287000  0.95035000  0.41308000  1.0
  H  H12  1  0.24901000  0.03786000  0.25794000  1.0
  H  H13  1  0.14030000  0.84540000  0.86479000  1.0
  H  H14  1  0.14019000  0.63604000  0.85660000  1.0
  H  H15  1  0.05788000  0.47037000  0.90928000  1.0
  H  H16  1  0.06590000  0.25972000  0.91445000  1.0
  H  H17  1  0.41479000  0.21146000  0.25536000  1.0
  H  H18  1  0.51967000  0.30248000  0.40914000  1.0
  H  H19  1  0.85287000  0.04965000  0.41308000  1.0
  H  H20  1  0.74901000  0.96215000  0.25794000  1.0
  H  H21  1  0.64030000  0.15461000  0.86479000  1.0
  H  H22  1  0.64019000  0.36396000  0.85660000  1.0
  H  H23  1  0.55788000  0.52963000  0.90928000  1.0
  H  H24  1  0.56590000  0.74028000  0.91445000  1.0
  H  H25  1  0.08521000  0.21146000  0.74464000  1.0
  H  H26  1  0.98033000  0.30248000  0.59086000  1.0
  H  H27  1  0.64713000  0.04965000  0.58692000  1.0
  H  H28  1  0.75099000  0.96215000  0.74206000  1.0
  H  H29  1  0.85970000  0.15461000  0.13521000  1.0
  H  H30  1  0.85981000  0.36396000  0.14339000  1.0
  H  H31  1  0.94212000  0.52963000  0.09072000  1.0
  H  H32  1  0.93410000  0.74028000  0.08555000  1.0
  C  C1  1  0.48279000  0.97107000  0.84736000  1.0
  C  C2  1  0.42428000  0.91911000  0.75309000  1.0
  C  C3  1  0.48904000  0.82304000  0.71009000  1.0
  C  C4  1  0.43153000  0.77227000  0.62450000  1.0
  C  C5  1  0.30842000  0.81865000  0.58062000  1.0
  C  C6  1  0.24325000  0.91536000  0.62130000  1.0
  C  C7  1  0.30185000  0.96477000  0.70717000  1.0
  C  C8  1  0.31009000  0.79598000  0.07582000  1.0
  C  C9  1  0.31152000  0.67814000  0.07902000  1.0
  C  C10  1  0.35559000  0.42816000  0.05094000  1.0
  C  C11  1  0.35254000  0.31032000  0.04821000  1.0
  C  C12  1  0.01721000  0.97107000  0.15264000  1.0
  C  C13  1  0.07572000  0.91911000  0.24691000  1.0
  C  C14  1  0.01096000  0.82304000  0.28990000  1.0
  C  C15  1  0.06847000  0.77227000  0.37550000  1.0
  C  C16  1  0.19159000  0.81865000  0.41938000  1.0
  C  C17  1  0.25675000  0.91536000  0.37869000  1.0
  C  C18  1  0.19815000  0.96477000  0.29283000  1.0
  C  C19  1  0.18992000  0.79599000  0.92418000  1.0
  C  C20  1  0.18848000  0.67814000  0.92098000  1.0
  C  C21  1  0.14442000  0.42816000  0.94906000  1.0
  C  C22  1  0.14747000  0.31032000  0.95179000  1.0
  C  C23  1  0.51721000  0.02894000  0.15264000  1.0
  C  C24  1  0.57572000  0.08089000  0.24691000  1.0
  C  C25  1  0.51096000  0.17697000  0.28990000  1.0
  C  C26  1  0.56847000  0.22773000  0.37550000  1.0
  C  C27  1  0.69159000  0.18135000  0.41938000  1.0
  C  C28  1  0.75675000  0.08464000  0.37870000  1.0
  C  C29  1  0.69815000  0.03524000  0.29283000  1.0
  C  C30  1  0.68991000  0.20402000  0.92418000  1.0
  C  C31  1  0.68848000  0.32186000  0.92098000  1.0
  C  C32  1  0.64442000  0.57185000  0.94906000  1.0
  C  C33  1  0.64747000  0.68969000  0.95179000  1.0
  C  C34  1  0.98279000  0.02894000  0.84736000  1.0
  C  C35  1  0.92428000  0.08089000  0.75309000  1.0
  C  C36  1  0.98904000  0.17697000  0.71009000  1.0
  C  C37  1  0.93153000  0.22773000  0.62450000  1.0
  C  C38  1  0.80842000  0.18136000  0.58062000  1.0
  C  C39  1  0.74325000  0.08464000  0.62130000  1.0
  C  C40  1  0.80185000  0.03524000  0.70717000  1.0
  C  C41  1  0.81009000  0.20402000  0.07582000  1.0
  C  C42  1  0.81152000  0.32186000  0.07902000  1.0
  C  C43  1  0.85559000  0.57185000  0.05094000  1.0
  C  C44  1  0.85253000  0.68969000  0.04821000  1.0
  C  C45  1  0.25000000  0.61596000  0.00000000  1.0
  C  C46  1  0.25000000  0.49058000  0.00000000  1.0
  C  C47  1  0.75000000  0.38404000  0.00000000  1.0
  C  C48  1  0.75000000  0.50942000  0.00000000  1.0
  N  N1  1  0.25000000  0.85514000  0.00000000  1.0
  N  N2  1  0.25000000  0.25116000  0.00000000  1.0
  N  N3  1  0.75000000  0.14487000  0.00000000  1.0
  N  N4  1  0.75000000  0.74884000  0.00000000  1.0
  O  O1  1  0.41402000  0.05218000  0.88861000  1.0
  O  O2  1  0.60138000  0.93063000  0.87926000  1.0
  O  O3  1  0.08599000  0.05218000  0.11138000  1.0
  O  O4  1  0.89862000  0.93063000  0.12074000  1.0
  O  O5  1  0.58599000  0.94783000  0.11138000  1.0
  O  O6  1  0.39863000  0.06937000  0.12074000  1.0
  O  O7  1  0.91402000  0.94783000  0.88862000  1.0
  O  O8  1  0.10138000  0.06937000  0.87926000  1.0
  O  O9  1  0.25000000  0.75956000  0.50000000  1.0
  O  O10  1  0.75000000  0.24045000  0.50000000  1.0
