# generated using pymatgen
data_Zn4Cu6H12C60Br24N12O13
_symmetry_space_group_name_H-M   'P 1'
_cell_length_a   33.26900000
_cell_length_b   34.02370000
_cell_length_c   34.04360000
_cell_angle_alpha   89.82050000
_cell_angle_beta   89.74400000
_cell_angle_gamma   89.58400000
_symmetry_Int_Tables_number   1
_chemical_formula_structural   Zn4Cu6H12C60Br24N12O13
_chemical_formula_sum   'Zn16 Cu24 H48 C240 Br96 N48 O52'
_cell_volume   38533.53894731
_cell_formula_units_Z   4
loop_
 _symmetry_equiv_pos_site_id
 _symmetry_equiv_pos_as_xyz
  1  'x, y, z'
loop_
 _atom_site_type_symbol
 _atom_site_label
 _atom_site_symmetry_multiplicity
 _atom_site_fract_x
 _atom_site_fract_y
 _atom_site_fract_z
 _atom_site_occupancy
  Zn  Zn1  1  0.99529000  0.02635000  0.94797000  1.0
  Zn  Zn2  1  0.03448000  0.03446000  0.02630000  1.0
  Zn  Zn3  1  0.95567000  0.99419000  0.01989000  1.0
  Zn  Zn4  1  0.02849000  0.95539000  0.98750000  1.0
  Zn  Zn5  1  0.51470000  0.52157000  0.05054000  1.0
  Zn  Zn6  1  0.48084000  0.45164000  0.01012000  1.0
  Zn  Zn7  1  0.47404000  0.53077000  0.97268000  1.0
  Zn  Zn8  1  0.55414000  0.48983000  0.97875000  1.0
  Zn  Zn9  1  0.98749000  0.52147000  0.55130000  1.0
  Zn  Zn10  1  0.95076000  0.48877000  0.47873000  1.0
  Zn  Zn11  1  0.02949000  0.53040000  0.47397000  1.0
  Zn  Zn12  1  0.02360000  0.45124000  0.51249000  1.0
  Zn  Zn13  1  0.52733000  0.04632000  0.50837000  1.0
  Zn  Zn14  1  0.45351000  0.01006000  0.47630000  1.0
  Zn  Zn15  1  0.53232000  0.96709000  0.47019000  1.0
  Zn  Zn16  1  0.49151000  0.97658000  0.54809000  1.0
  Cu  Cu1  1  0.65277000  0.58955000  0.66387000  1.0
  Cu  Cu2  1  0.65101000  0.65228000  0.58817000  1.0
  Cu  Cu3  1  0.60941000  0.67770000  0.67826000  1.0
  Cu  Cu4  1  0.81925000  0.12027000  0.30787000  1.0
  Cu  Cu5  1  0.82782000  0.16795000  0.39413000  1.0
  Cu  Cu6  1  0.89434000  0.18475000  0.31756000  1.0
  Cu  Cu7  1  0.33614000  0.89883000  0.17362000  1.0
  Cu  Cu8  1  0.33051000  0.83121000  0.10194000  1.0
  Cu  Cu9  1  0.40240000  0.82360000  0.17501000  1.0
  Cu  Cu10  1  0.16634000  0.40649000  0.83371000  1.0
  Cu  Cu11  1  0.16455000  0.34476000  0.91070000  1.0
  Cu  Cu12  1  0.10979000  0.32614000  0.82625000  1.0
  Cu  Cu13  1  0.33761000  0.40437000  0.33333333  1.0
  Cu  Cu14  1  0.34374000  0.34647000  0.41273000  1.0
  Cu  Cu15  1  0.38789000  0.31965000  0.32396000  1.0
  Cu  Cu16  1  0.15007000  0.90964000  0.65314000  1.0
  Cu  Cu17  1  0.17280000  0.82500000  0.60742000  1.0
  Cu  Cu18  1  0.08053000  0.83911000  0.65303000  1.0
  Cu  Cu19  1  0.65109000  0.08555000  0.84189000  1.0
  Cu  Cu20  1  0.65441000  0.14997000  0.91590000  1.0
  Cu  Cu21  1  0.59338000  0.16672000  0.83493000  1.0
  Cu  Cu22  1  0.85391000  0.59191000  0.16191000  1.0
  Cu  Cu23  1  0.83955000  0.66734000  0.09913000  1.0
  Cu  Cu24  1  0.91068000  0.67313000  0.17229000  1.0
  H  H1  1  0.73783000  0.54616000  0.64430000  1.0
  H  H2  1  0.73304000  0.62347000  0.54487000  1.0
  H  H3  1  0.56735000  0.65894000  0.76245000  1.0
  H  H4  1  0.61918000  0.54528000  0.74175000  1.0
  H  H5  1  0.62184000  0.72921000  0.53961000  1.0
  H  H6  1  0.57387000  0.76307000  0.65137000  1.0
  H  H7  1  0.74270000  0.06561000  0.33077000  1.0
  H  H8  1  0.75401000  0.12623000  0.43997000  1.0
  H  H9  1  0.94956000  0.15565000  0.24421000  1.0
  H  H10  1  0.85087000  0.07731000  0.22846000  1.0
  H  H11  1  0.86008000  0.23649000  0.45201000  1.0
  H  H12  1  0.93863000  0.26031000  0.35541000  1.0
  H  H13  1  0.25741000  0.95138000  0.14886000  1.0
  H  H14  1  0.25252000  0.86635000  0.05691000  1.0
  H  H15  1  0.45059000  0.84788000  0.25353000  1.0
  H  H16  1  0.36533000  0.94254000  0.25333000  1.0
  H  H17  1  0.35586000  0.75207000  0.05418000  1.0
  H  H18  1  0.44380000  0.74215000  0.14471000  1.0
  H  H19  1  0.24910000  0.45282000  0.85512000  1.0
  H  H20  1  0.24638000  0.37387000  0.95310000  1.0
  H  H21  1  0.05758000  0.35186000  0.75068000  1.0
  H  H22  1  0.13028000  0.45467000  0.75865000  1.0
  H  H23  1  0.13966000  0.26530000  0.95808000  1.0
  H  H24  1  0.07357000  0.24236000  0.85331000  1.0
  H  H25  1  0.25418000  0.45017000  0.35516000  1.0
  H  H26  1  0.26295000  0.37782000  0.45782000  1.0
  H  H27  1  0.43744000  0.34094000  0.24407000  1.0
  H  H28  1  0.37689000  0.45125000  0.25906000  1.0
  H  H29  1  0.37492000  0.27121000  0.46350000  1.0
  H  H30  1  0.42364000  0.23561000  0.35260000  1.0
  H  H31  1  0.22540000  0.96151000  0.62166000  1.0
  H  H32  1  0.25688000  0.85207000  0.56764000  1.0
  H  H33  1  0.03894000  0.85895000  0.73781000  1.0
  H  H34  1  0.12797000  0.94918000  0.73741000  1.0
  H  H35  1  0.15292000  0.74028000  0.56834000  1.0
  H  H36  1  0.03774000  0.75995000  0.62134000  1.0
  H  H37  1  0.73948000  0.04529000  0.85442000  1.0
  H  H38  1  0.73993000  0.12347000  0.95271000  1.0
  H  H39  1  0.55475000  0.14907000  0.74945000  1.0
  H  H40  1  0.62318000  0.04278000  0.76135000  1.0
  H  H41  1  0.63424000  0.23085000  0.96163000  1.0
  H  H42  1  0.55835000  0.25175000  0.86270000  1.0
  H  H43  1  0.77592000  0.54004000  0.13730000  1.0
  H  H44  1  0.75535000  0.63911000  0.06217000  1.0
  H  H45  1  0.95133000  0.65073000  0.25588000  1.0
  H  H46  1  0.87922000  0.54802000  0.24331000  1.0
  H  H47  1  0.86672000  0.74477000  0.05013000  1.0
  H  H48  1  0.94987000  0.75623000  0.14462000  1.0
  C  C1  1  0.72863000  0.56709000  0.62206000  1.0
  C  C2  1  0.75016000  0.57825000  0.58886000  1.0
  C  C3  1  0.72680000  0.60758000  0.57175000  1.0
  C  C4  1  0.58334000  0.63402000  0.75020000  1.0
  C  C5  1  0.58640000  0.59651000  0.76615000  1.0
  C  C6  1  0.60877000  0.57534000  0.73891000  1.0
  C  C7  1  0.61285000  0.72985000  0.57017000  1.0
  C  C8  1  0.59235000  0.75975000  0.58915000  1.0
  C  C9  1  0.58847000  0.74730000  0.62768000  1.0
  C  C10  1  0.75276000  0.08427000  0.35437000  1.0
  C  C11  1  0.73590000  0.08750000  0.39144000  1.0
  C  C12  1  0.75880000  0.11519000  0.41055000  1.0
  C  C13  1  0.92243000  0.13872000  0.24812000  1.0
  C  C14  1  0.90788000  0.10998000  0.22328000  1.0
  C  C15  1  0.87118000  0.09938000  0.23940000  1.0
  C  C16  1  0.87676000  0.23460000  0.42475000  1.0
  C  C17  1  0.90629000  0.26007000  0.41202000  1.0
  C  C18  1  0.91709000  0.24689000  0.37509000  1.0
  C  C19  1  0.26413000  0.92724000  0.12926000  1.0
  C  C20  1  0.24243000  0.91655000  0.09657000  1.0
  C  C21  1  0.26166000  0.88364000  0.08189000  1.0
  C  C22  1  0.42604000  0.86771000  0.24669000  1.0
  C  C23  1  0.41484000  0.90124000  0.26721000  1.0
  C  C24  1  0.38319000  0.91696000  0.24577000  1.0
  C  C25  1  0.37462000  0.75763000  0.07938000  1.0
  C  C26  1  0.40565000  0.73413000  0.09275000  1.0
  C  C27  1  0.41974000  0.75247000  0.12600000  1.0
  C  C28  1  0.24021000  0.43096000  0.87651000  1.0
  C  C29  1  0.26086000  0.42033000  0.91000000  1.0
  C  C30  1  0.23891000  0.39036000  0.92688000  1.0
  C  C31  1  0.07741000  0.37474000  0.76078000  1.0
  C  C32  1  0.08573000  0.40992000  0.74193000  1.0
  C  C33  1  0.11559000  0.42697000  0.76432000  1.0
  C  C34  1  0.12584000  0.26763000  0.92947000  1.0
  C  C35  1  0.10129000  0.24026000  0.91192000  1.0
  C  C36  1  0.09219000  0.25569000  0.87548000  1.0
  C  C37  1  0.26459000  0.43004000  0.37763000  1.0
  C  C38  1  0.24544000  0.42126000  0.41256000  1.0
  C  C39  1  0.26910000  0.39291000  0.43045000  1.0
  C  C40  1  0.41987000  0.36522000  0.25557000  1.0
  C  C41  1  0.41530000  0.40213000  0.23896000  1.0
  C  C42  1  0.38878000  0.42190000  0.26338000  1.0
  C  C43  1  0.38373000  0.26989000  0.43291000  1.0
  C  C44  1  0.40492000  0.23989000  0.41468000  1.0
  C  C45  1  0.40848000  0.25149000  0.37588000  1.0
  C  C46  1  0.22510000  0.93173000  0.61066000  1.0
  C  C47  1  0.25442000  0.91364000  0.58797000  1.0
  C  C48  1  0.24134000  0.87549000  0.58302000  1.0
  C  C49  1  0.06292000  0.87873000  0.72969000  1.0
  C  C50  1  0.07783000  0.90938000  0.75178000  1.0
  C  C51  1  0.10872000  0.92499000  0.72951000  1.0
  C  C52  1  0.12782000  0.75272000  0.58445000  1.0
  C  C53  1  0.09006000  0.73668000  0.58862000  1.0
  C  C54  1  0.06846000  0.76298000  0.61133000  1.0
  C  C55  1  0.73143000  0.06683000  0.87645000  1.0
  C  C56  1  0.75446000  0.07852000  0.90804000  1.0
  C  C57  1  0.73167000  0.10695000  0.92691000  1.0
  C  C58  1  0.57399000  0.12569000  0.76021000  1.0
  C  C59  1  0.58295000  0.09069000  0.74145000  1.0
  C  C60  1  0.60902000  0.07105000  0.76636000  1.0
  C  C61  1  0.61736000  0.22775000  0.93475000  1.0
  C  C62  1  0.59126000  0.25500000  0.91858000  1.0
  C  C63  1  0.57867000  0.23854000  0.88372000  1.0
  C  C64  1  0.77860000  0.56748000  0.12141000  1.0
  C  C65  1  0.75193000  0.58268000  0.09407000  1.0
  C  C66  1  0.76809000  0.61831000  0.08282000  1.0
  C  C67  1  0.93136000  0.62846000  0.24481000  1.0
  C  C68  1  0.92139000  0.59357000  0.26300000  1.0
  C  C69  1  0.89430000  0.57565000  0.23835000  1.0
  C  C70  1  0.88420000  0.73989000  0.07642000  1.0
  C  C71  1  0.91400000  0.76389000  0.09081000  1.0
  C  C72  1  0.92692000  0.74576000  0.12494000  1.0
  C  C73  1  0.04239000  0.09113000  0.96726000  1.0
  C  C74  1  0.97337000  0.04465000  0.08212000  1.0
  C  C75  1  0.91190000  0.02725000  0.95794000  1.0
  C  C76  1  0.96827000  0.91303000  0.02646000  1.0
  C  C77  1  0.09385000  0.97651000  0.03435000  1.0
  C  C78  1  0.03032000  0.96443000  0.90579000  1.0
  C  C79  1  0.47813000  0.45997000  0.09166000  1.0
  C  C80  1  0.41452000  0.47368000  0.96492000  1.0
  C  C81  1  0.46642000  0.58689000  0.03224000  1.0
  C  C82  1  0.53326000  0.53735000  0.91443000  1.0
  C  C83  1  0.54296000  0.40855000  0.97484000  1.0
  C  C84  1  0.59818000  0.52470000  0.03924000  1.0
  C  C85  1  0.90463000  0.52308000  0.53861000  1.0
  C  C86  1  0.97191000  0.53599000  0.41454000  1.0
  C  C87  1  0.03319000  0.58766000  0.53254000  1.0
  C  C88  1  0.09025000  0.47359000  0.46726000  1.0
  C  C89  1  0.96308000  0.40710000  0.47693000  1.0
  C  C90  1  0.02565000  0.46185000  0.59379000  1.0
  C  C91  1  0.46572000  0.09138000  0.47430000  1.0
  C  C92  1  0.47331000  0.96253000  0.41208000  1.0
  C  C93  1  0.59213000  0.02373000  0.46036000  1.0
  C  C94  1  0.53710000  0.90961000  0.52910000  1.0
  C  C95  1  0.40827000  0.97438000  0.53597000  1.0
  C  C96  1  0.52918000  0.03664000  0.58995000  1.0
  C  C97  1  0.81813000  0.59131000  0.56344000  1.0
  C  C98  1  0.78835000  0.56450000  0.57666000  1.0
  C  C99  1  0.79787000  0.52370000  0.57781000  1.0
  C  C100  1  0.83624000  0.51028000  0.56609000  1.0
  C  C101  1  0.86493000  0.53698000  0.55205000  1.0
  C  C102  1  0.85591000  0.57737000  0.55071000  1.0
  C  C103  1  0.66220000  0.07278000  0.38810000  1.0
  C  C104  1  0.69964000  0.06781000  0.40697000  1.0
  C  C105  1  0.70200000  0.04541000  0.44188000  1.0
  C  C106  1  0.66690000  0.02973000  0.45878000  1.0
  C  C107  1  0.62948000  0.03595000  0.44067000  1.0
  C  C108  1  0.62731000  0.05642000  0.40475000  1.0
  C  C109  1  0.16875000  0.92957000  0.10333000  1.0
  C  C110  1  0.20483000  0.93434000  0.08199000  1.0
  C  C111  1  0.20466000  0.95490000  0.04598000  1.0
  C  C112  1  0.16835000  0.96998000  0.03096000  1.0
  C  C113  1  0.13222000  0.96413000  0.05172000  1.0
  C  C114  1  0.13245000  0.94445000  0.08812000  1.0
  C  C115  1  0.33531000  0.41333000  0.91386000  1.0
  C  C116  1  0.30024000  0.43498000  0.92270000  1.0
  C  C117  1  0.30279000  0.47042000  0.94375000  1.0
  C  C118  1  0.34035000  0.48374000  0.95692000  1.0
  C  C119  1  0.37547000  0.46170000  0.94869000  1.0
  C  C120  1  0.37291000  0.42671000  0.92668000  1.0
  C  C121  1  0.57780000  0.60495000  0.83745000  1.0
  C  C122  1  0.57171000  0.58294000  0.80260000  1.0
  C  C123  1  0.55146000  0.54641000  0.80510000  1.0
  C  C124  1  0.53817000  0.53208000  0.84172000  1.0
  C  C125  1  0.54531000  0.55359000  0.87609000  1.0
  C  C126  1  0.56475000  0.59005000  0.87397000  1.0
  C  C127  1  0.02888000  0.42236000  0.69790000  1.0
  C  C128  1  0.07080000  0.42270000  0.70544000  1.0
  C  C129  1  0.09754000  0.43536000  0.67543000  1.0
  C  C130  1  0.08243000  0.44794000  0.63897000  1.0
  C  C131  1  0.04081000  0.44792000  0.63193000  1.0
  C  C132  1  0.01407000  0.43513000  0.66129000  1.0
  C  C133  1  0.96558000  0.08290000  0.18699000  1.0
  C  C134  1  0.92514000  0.09625000  0.18807000  1.0
  C  C135  1  0.90191000  0.09511000  0.15334000  1.0
  C  C136  1  0.91848000  0.07979000  0.11847000  1.0
  C  C137  1  0.95797000  0.06425000  0.11806000  1.0
  C  C138  1  0.98168000  0.06645000  0.15227000  1.0
  C  C139  1  0.43786000  0.95691000  0.30676000  1.0
  C  C140  1  0.43118000  0.91595000  0.30237000  1.0
  C  C141  1  0.44033000  0.89034000  0.33425000  1.0
  C  C142  1  0.45525000  0.90562000  0.36971000  1.0
  C  C143  1  0.46045000  0.94636000  0.37407000  1.0
  C  C144  1  0.45189000  0.97191000  0.34261000  1.0
  C  C145  1  0.53678000  0.80639000  0.57148000  1.0
  C  C146  1  0.57820000  0.79739000  0.57213000  1.0
  C  C147  1  0.60607000  0.82459000  0.55688000  1.0
  C  C148  1  0.59263000  0.86095000  0.54181000  1.0
  C  C149  1  0.55128000  0.87040000  0.54211000  1.0
  C  C150  1  0.52334000  0.84275000  0.55650000  1.0
  C  C151  1  0.41389000  0.66128000  0.09775000  1.0
  C  C152  1  0.41948000  0.69629000  0.07627000  1.0
  C  C153  1  0.43866000  0.69515000  0.03930000  1.0
  C  C154  1  0.45329000  0.65924000  0.02432000  1.0
  C  C155  1  0.44870000  0.62428000  0.04630000  1.0
  C  C156  1  0.42830000  0.62534000  0.08277000  1.0
  C  C157  1  0.06345000  0.20022000  0.96136000  1.0
  C  C158  1  0.08831000  0.20192000  0.92774000  1.0
  C  C159  1  0.09942000  0.16696000  0.90819000  1.0
  C  C160  1  0.08481000  0.13059000  0.92154000  1.0
  C  C161  1  0.05927000  0.12901000  0.95461000  1.0
  C  C162  1  0.04900000  0.16378000  0.97482000  1.0
  C  C163  1  0.89289000  0.32628000  0.44168000  1.0
  C  C164  1  0.92039000  0.29627000  0.43149000  1.0
  C  C165  1  0.96166000  0.30142000  0.43863000  1.0
  C  C166  1  0.97580000  0.33711000  0.45406000  1.0
  C  C167  1  0.94836000  0.36789000  0.46367000  1.0
  C  C168  1  0.90658000  0.36140000  0.45864000  1.0
  C  C169  1  0.17062000  0.42137000  0.40803000  1.0
  C  C170  1  0.20579000  0.43576000  0.42567000  1.0
  C  C171  1  0.20303000  0.46422000  0.45553000  1.0
  C  C172  1  0.16509000  0.47776000  0.46825000  1.0
  C  C173  1  0.12992000  0.46236000  0.45152000  1.0
  C  C174  1  0.13272000  0.43474000  0.42091000  1.0
  C  C175  1  0.32061000  0.94509000  0.60225000  1.0
  C  C176  1  0.29317000  0.93025000  0.57466000  1.0
  C  C177  1  0.30333000  0.93015000  0.53444000  1.0
  C  C178  1  0.34099000  0.94415000  0.52184000  1.0
  C  C179  1  0.36832000  0.95998000  0.54933000  1.0
  C  C180  1  0.35771000  0.96040000  0.58965000  1.0
  C  C181  1  0.82654000  0.09258000  0.92323000  1.0
  C  C182  1  0.79537000  0.06500000  0.91863000  1.0
  C  C183  1  0.80334000  0.02465000  0.92497000  1.0
  C  C184  1  0.84202000  0.01213000  0.93624000  1.0
  C  C185  1  0.87243000  0.03990000  0.94278000  1.0
  C  C186  1  0.86472000  0.08013000  0.93598000  1.0
  C  C187  1  0.68344000  0.55493000  0.10757000  1.0
  C  C188  1  0.71355000  0.56570000  0.08039000  1.0
  C  C189  1  0.70626000  0.56195000  0.03982000  1.0
  C  C190  1  0.66849000  0.54948000  0.02636000  1.0
  C  C191  1  0.63822000  0.53798000  0.05352000  1.0
  C  C192  1  0.64645000  0.54014000  0.09432000  1.0
  C  C193  1  0.40524000  0.42753000  0.17062000  1.0
  C  C194  1  0.43165000  0.41613000  0.20101000  1.0
  C  C195  1  0.47359000  0.41839000  0.19507000  1.0
  C  C196  1  0.48898000  0.43229000  0.15906000  1.0
  C  C197  1  0.46256000  0.44462000  0.12920000  1.0
  C  C198  1  0.42068000  0.44210000  0.13498000  1.0
  C  C199  1  0.97277000  0.56168000  0.30595000  1.0
  C  C200  1  0.93480000  0.57969000  0.30182000  1.0
  C  C201  1  0.90958000  0.58453000  0.33477000  1.0
  C  C202  1  0.92212000  0.57100000  0.37186000  1.0
  C  C203  1  0.95986000  0.55217000  0.37600000  1.0
  C  C204  1  0.98527000  0.54772000  0.34294000  1.0
  C  C205  1  0.09273000  0.92056000  0.82285000  1.0
  C  C206  1  0.06507000  0.92170000  0.79158000  1.0
  C  C207  1  0.02551000  0.93532000  0.79827000  1.0
  C  C208  1  0.01383000  0.94830000  0.83589000  1.0
  C  C209  1  0.04190000  0.94842000  0.86693000  1.0
  C  C210  1  0.08134000  0.93420000  0.86030000  1.0
  C  C211  1  0.52758000  0.07567000  0.69414000  1.0
  C  C212  1  0.56909000  0.07780000  0.70234000  1.0
  C  C213  1  0.59736000  0.06772000  0.67292000  1.0
  C  C214  1  0.58419000  0.05419000  0.63620000  1.0
  C  C215  1  0.54278000  0.05174000  0.62820000  1.0
  C  C216  1  0.51457000  0.06344000  0.65688000  1.0
  C  C217  1  0.46221000  0.19441000  0.43016000  1.0
  C  C218  1  0.42078000  0.20318000  0.43249000  1.0
  C  C219  1  0.39452000  0.17630000  0.45074000  1.0
  C  C220  1  0.40948000  0.14052000  0.46590000  1.0
  C  C221  1  0.45071000  0.13072000  0.46180000  1.0
  C  C222  1  0.47710000  0.15820000  0.44426000  1.0
  C  C223  1  0.58808000  0.32809000  0.91065000  1.0
  C  C224  1  0.58095000  0.29444000  0.93389000  1.0
  C  C225  1  0.56358000  0.29856000  0.97152000  1.0
  C  C226  1  0.55283000  0.33606000  0.98561000  1.0
  C  C227  1  0.55797000  0.36964000  0.96154000  1.0
  C  C228  1  0.57602000  0.36545000  0.92405000  1.0
  C  C229  1  0.96900000  0.80787000  0.06661000  1.0
  C  C230  1  0.92783000  0.80175000  0.07414000  1.0
  C  C231  1  0.89987000  0.83196000  0.06597000  1.0
  C  C232  1  0.91270000  0.86759000  0.04909000  1.0
  C  C233  1  0.95425000  0.87444000  0.04234000  1.0
  C  C234  1  0.98237000  0.84433000  0.05207000  1.0
  C  C235  1  0.08793000  0.66357000  0.59269000  1.0
  C  C236  1  0.07627000  0.69857000  0.57358000  1.0
  C  C237  1  0.05123000  0.69716000  0.54037000  1.0
  C  C238  1  0.03761000  0.66073000  0.52639000  1.0
  C  C239  1  0.04885000  0.62572000  0.54582000  1.0
  C  C240  1  0.07415000  0.62718000  0.57890000  1.0
  Br  Br1  1  0.89589000  0.61372000  0.53134000  1.0
  Br  Br2  1  0.81083000  0.64762000  0.56811000  1.0
  Br  Br3  1  0.85018000  0.45524000  0.56999000  1.0
  Br  Br4  1  0.75747000  0.48481000  0.58987000  1.0
  Br  Br5  1  0.57619000  0.06219000  0.37865000  1.0
  Br  Br6  1  0.65773000  0.10442000  0.34113000  1.0
  Br  Br7  1  0.66992000  0.00001000  0.50688000  1.0
  Br  Br8  1  0.75337000  0.03537000  0.46623000  1.0
  Br  Br9  1  0.08274000  0.93725000  0.11661000  1.0
  Br  Br10  1  0.16866000  0.90093000  0.15234000  1.0
  Br  Br11  1  0.16786000  0.99866000  0.98200000  1.0
  Br  Br12  1  0.25422000  0.96267000  0.01746000  1.0
  Br  Br13  1  0.42106000  0.39767000  0.91290000  1.0
  Br  Br14  1  0.33178000  0.36545000  0.88383000  1.0
  Br  Br15  1  0.34323000  0.53079000  0.98832000  1.0
  Br  Br16  1  0.25453000  0.49997000  0.95552000  1.0
  Br  Br17  1  0.57468000  0.61881000  0.92173000  1.0
  Br  Br18  1  0.60920000  0.65258000  0.83712000  1.0
  Br  Br19  1  0.50911000  0.48322000  0.84508000  1.0
  Br  Br20  1  0.53690000  0.51779000  0.75830000  1.0
  Br  Br21  1  0.95705000  0.43469000  0.65085000  1.0
  Br  Br22  1  0.99075000  0.40911000  0.73882000  1.0
  Br  Br23  1  0.11891000  0.46570000  0.59840000  1.0
  Br  Br24  1  0.15526000  0.43031000  0.68100000  1.0
  Br  Br25  1  0.03531000  0.04415000  0.15286000  1.0
  Br  Br26  1  0.99769000  0.08162000  0.23424000  1.0
  Br  Br27  1  0.88751000  0.08270000  0.07045000  1.0
  Br  Br28  1  0.84902000  0.11922000  0.15146000  1.0
  Br  Br29  1  0.46120000  0.02766000  0.34826000  1.0
  Br  Br30  1  0.43369000  0.99260000  0.26252000  1.0
  Br  Br31  1  0.46577000  0.87098000  0.41371000  1.0
  Br  Br32  1  0.42667000  0.83516000  0.33291000  1.0
  Br  Br33  1  0.46634000  0.85390000  0.55416000  1.0
  Br  Br34  1  0.49820000  0.76830000  0.58985000  1.0
  Br  Br35  1  0.63125000  0.89861000  0.52286000  1.0
  Br  Br36  1  0.66298000  0.81315000  0.55878000  1.0
  Br  Br37  1  0.41834000  0.57730000  0.11159000  1.0
  Br  Br38  1  0.38522000  0.66232000  0.14720000  1.0
  Br  Br39  1  0.48161000  0.65862000  0.97472000  1.0
  Br  Br40  1  0.44675000  0.74318000  0.01006000  1.0
  Br  Br41  1  0.01310000  0.16174000  0.01952000  1.0
  Br  Br42  1  0.04712000  0.24796000  0.98766000  1.0
  Br  Br43  1  0.10074000  0.08267000  0.89522000  1.0
  Br  Br44  1  0.13579000  0.16859000  0.86386000  1.0
  Br  Br45  1  0.86688000  0.39936000  0.47625000  1.0
  Br  Br46  1  0.83638000  0.32076000  0.42992000  1.0
  Br  Br47  1  0.03327000  0.34306000  0.45974000  1.0
  Br  Br48  1  0.99900000  0.25888000  0.42797000  1.0
  Br  Br49  1  0.08455000  0.41636000  0.39578000  1.0
  Br  Br50  1  0.17432000  0.38248000  0.36700000  1.0
  Br  Br51  1  0.16118000  0.51701000  0.50889000  1.0
  Br  Br52  1  0.25129000  0.48478000  0.47870000  1.0
  Br  Br53  1  0.39311000  0.98260000  0.62832000  1.0
  Br  Br54  1  0.30865000  0.94230000  0.65784000  1.0
  Br  Br55  1  0.35562000  0.93836000  0.46705000  1.0
  Br  Br56  1  0.26508000  0.91182000  0.49618000  1.0
  Br  Br57  1  0.90592000  0.11860000  0.94591000  1.0
  Br  Br58  1  0.81784000  0.14736000  0.91047000  1.0
  Br  Br59  1  0.85391000  0.95676000  0.94097000  1.0
  Br  Br60  1  0.76097000  0.98645000  0.92057000  1.0
  Br  Br61  1  0.60816000  0.52186000  0.13303000  1.0
  Br  Br62  1  0.69154000  0.56274000  0.16321000  1.0
  Br  Br63  1  0.65849000  0.55139000  0.97038000  1.0
  Br  Br64  1  0.74868000  0.57241000  0.00223000  1.0
  Br  Br65  1  0.38430000  0.45973000  0.09433000  1.0
  Br  Br66  1  0.34785000  0.42151000  0.17674000  1.0
  Br  Br67  1  0.54618000  0.43282000  0.14987000  1.0
  Br  Br68  1  0.51006000  0.40387000  0.23667000  1.0
  Br  Br69  1  0.03617000  0.52046000  0.34755000  1.0
  Br  Br70  1  0.00708000  0.55518000  0.26055000  1.0
  Br  Br71  1  0.88813000  0.57994000  0.41718000  1.0
  Br  Br72  1  0.85806000  0.61034000  0.32907000  1.0
  Br  Br73  1  0.12077000  0.93521000  0.90176000  1.0
  Br  Br74  1  0.14605000  0.89903000  0.81490000  1.0
  Br  Br75  1  0.95876000  0.96446000  0.84503000  1.0
  Br  Br76  1  0.98766000  0.93803000  0.75548000  1.0
  Br  Br77  1  0.45818000  0.06496000  0.64426000  1.0
  Br  Br78  1  0.48822000  0.08754000  0.73432000  1.0
  Br  Br79  1  0.62302000  0.03795000  0.59717000  1.0
  Br  Br80  1  0.65424000  0.07421000  0.68184000  1.0
  Br  Br81  1  0.53353000  0.14612000  0.43717000  1.0
  Br  Br82  1  0.49906000  0.23262000  0.40864000  1.0
  Br  Br83  1  0.37330000  0.10588000  0.49375000  1.0
  Br  Br84  1  0.33751000  0.18726000  0.45309000  1.0
  Br  Br85  1  0.58253000  0.41017000  0.88949000  1.0
  Br  Br86  1  0.61594000  0.32345000  0.86089000  1.0
  Br  Br87  1  0.53267000  0.34112000  0.03876000  1.0
  Br  Br88  1  0.55240000  0.25268000  0.00320000  1.0
  Br  Br89  1  0.03981000  0.85264000  0.04849000  1.0
  Br  Br90  1  0.00731000  0.76558000  0.07458000  1.0
  Br  Br91  1  0.87199000  0.90571000  0.03444000  1.0
  Br  Br92  1  0.84385000  0.82579000  0.08016000  1.0
  Br  Br93  1  0.09079000  0.57919000  0.60477000  1.0
  Br  Br94  1  0.12201000  0.66562000  0.63836000  1.0
  Br  Br95  1  0.00215000  0.65889000  0.48172000  1.0
  Br  Br96  1  0.03586000  0.74518000  0.51397000  1.0
  N  N1  1  0.69390000  0.61339000  0.59414000  1.0
  N  N2  1  0.69493000  0.58909000  0.62416000  1.0
  N  N3  1  0.61834000  0.59939000  0.70893000  1.0
  N  N4  1  0.60273000  0.63437000  0.71541000  1.0
  N  N5  1  0.60607000  0.71168000  0.63111000  1.0
  N  N6  1  0.62064000  0.70123000  0.59650000  1.0
  N  N7  1  0.78771000  0.12752000  0.38576000  1.0
  N  N8  1  0.78399000  0.10917000  0.35206000  1.0
  N  N9  1  0.86480000  0.12087000  0.27194000  1.0
  N  N10  1  0.89525000  0.14468000  0.27696000  1.0
  N  N11  1  0.89472000  0.21527000  0.36653000  1.0
  N  N12  1  0.87028000  0.20799000  0.39630000  1.0
  N  N13  1  0.29329000  0.87544000  0.10508000  1.0
  N  N14  1  0.29490000  0.90160000  0.13338000  1.0
  N  N15  1  0.37645000  0.89380000  0.21455000  1.0
  N  N16  1  0.40215000  0.86432000  0.21509000  1.0
  N  N17  1  0.39784000  0.78540000  0.13189000  1.0
  N  N18  1  0.37068000  0.78849000  0.10385000  1.0
  N  N19  1  0.20668000  0.38380000  0.90410000  1.0
  N  N20  1  0.20740000  0.40816000  0.87403000  1.0
  N  N21  1  0.12434000  0.40275000  0.79443000  1.0
  N  N22  1  0.10163000  0.37141000  0.79216000  1.0
  N  N23  1  0.11078000  0.29047000  0.87173000  1.0
  N  N24  1  0.13090000  0.29779000  0.90421000  1.0
  N  N25  1  0.30072000  0.38537000  0.40672000  1.0
  N  N26  1  0.29813000  0.40782000  0.37529000  1.0
  N  N27  1  0.37819000  0.39750000  0.29275000  1.0
  N  N28  1  0.39701000  0.36368000  0.28827000  1.0
  N  N29  1  0.39030000  0.28669000  0.37163000  1.0
  N  N30  1  0.37533000  0.29773000  0.40588000  1.0
  N  N31  1  0.20599000  0.87160000  0.60192000  1.0
  N  N32  1  0.19644000  0.90515000  0.61871000  1.0
  N  N33  1  0.11182000  0.90419000  0.69609000  1.0
  N  N34  1  0.08447000  0.87649000  0.69617000  1.0
  N  N35  1  0.09266000  0.79324000  0.62003000  1.0
  N  N36  1  0.12832000  0.78712000  0.60389000  1.0
  N  N37  1  0.69726000  0.11195000  0.90690000  1.0
  N  N38  1  0.69685000  0.08763000  0.87700000  1.0
  N  N39  1  0.61508000  0.09375000  0.79804000  1.0
  N  N40  1  0.59394000  0.12634000  0.79450000  1.0
  N  N41  1  0.59693000  0.20337000  0.87949000  1.0
  N  N42  1  0.61990000  0.19674000  0.91037000  1.0
  N  N43  1  0.80258000  0.62353000  0.10249000  1.0
  N  N44  1  0.80873000  0.59331000  0.12589000  1.0
  N  N45  1  0.88885000  0.59915000  0.20689000  1.0
  N  N46  1  0.91091000  0.63082000  0.21084000  1.0
  N  N47  1  0.90564000  0.71261000  0.13016000  1.0
  N  N48  1  0.87964000  0.70937000  0.10123000  1.0
  O  O1  1  0.00359000  0.00268000  0.99541000  1.0
  O  O2  1  0.02010000  0.07251000  0.94375000  1.0
  O  O3  1  0.00848000  0.05181000  0.06939000  1.0
  O  O4  1  0.91362000  0.00933000  0.99067000  1.0
  O  O5  1  0.05032000  0.07804000  0.00129000  1.0
  O  O6  1  0.94334000  0.03568000  0.93857000  1.0
  O  O7  1  0.95053000  0.02110000  0.06429000  1.0
  O  O8  1  0.00049000  0.91473000  0.00652000  1.0
  O  O9  1  0.07948000  0.01019000  0.04251000  1.0
  O  O10  1  0.94822000  0.94402000  0.03354000  1.0
  O  O11  1  0.07590000  0.95277000  0.01185000  1.0
  O  O12  1  0.03782000  0.94479000  0.93668000  1.0
  O  O13  1  0.01323000  0.99780000  0.90751000  1.0
  O  O14  1  0.50587000  0.49857000  0.00297000  1.0
  O  O15  1  0.49696000  0.49230000  0.09106000  1.0
  O  O16  1  0.43362000  0.44936000  0.98614000  1.0
  O  O17  1  0.45870000  0.57473000  0.99789000  1.0
  O  O18  1  0.47056000  0.44126000  0.06045000  1.0
  O  O19  1  0.48899000  0.56748000  0.05523000  1.0
  O  O20  1  0.42828000  0.50761000  0.95752000  1.0
  O  O21  1  0.55756000  0.51478000  0.93243000  1.0
  O  O22  1  0.50887000  0.41087000  0.99145000  1.0
  O  O23  1  0.49887000  0.54599000  0.92835000  1.0
  O  O24  1  0.56389000  0.43900000  0.96887000  1.0
  O  O25  1  0.59586000  0.50654000  0.00688000  1.0
  O  O26  1  0.56669000  0.53223000  0.05909000  1.0
  O  O27  1  0.99790000  0.49806000  0.50410000  1.0
  O  O28  1  0.93517000  0.53044000  0.55941000  1.0
  O  O29  1  0.94796000  0.51328000  0.43247000  1.0
  O  O30  1  0.04238000  0.57507000  0.49860000  1.0
  O  O31  1  0.90760000  0.50558000  0.50585000  1.0
  O  O32  1  0.01101000  0.56815000  0.55569000  1.0
  O  O33  1  0.00573000  0.54494000  0.42895000  1.0
  O  O34  1  0.07109000  0.44874000  0.48779000  1.0
  O  O35  1  0.94320000  0.43784000  0.46827000  1.0
  O  O36  1  0.07622000  0.50764000  0.46017000  1.0
  O  O37  1  0.99566000  0.40964000  0.49589000  1.0
  O  O38  1  0.03428000  0.44246000  0.56312000  1.0
  O  O39  1  0.00567000  0.49368000  0.59228000  1.0
  O  O40  1  0.50127000  0.99994000  0.50068000  1.0
  O  O41  1  0.49911000  0.08833000  0.49193000  1.0
  O  O42  1  0.44986000  0.98593000  0.43005000  1.0
  O  O43  1  0.57823000  0.98969000  0.45408000  1.0
  O  O44  1  0.44519000  0.06116000  0.46646000  1.0
  O  O45  1  0.57402000  0.04834000  0.48220000  1.0
  O  O46  1  0.50725000  0.95271000  0.42603000  1.0
  O  O47  1  0.51566000  0.92983000  0.55249000  1.0
  O  O48  1  0.41102000  0.99320000  0.50386000  1.0
  O  O49  1  0.54593000  0.92212000  0.49497000  1.0
  O  O50  1  0.43930000  0.96666000  0.55619000  1.0
  O  O51  1  0.50916000  0.00502000  0.58885000  1.0
  O  O52  1  0.53847000  0.05524000  0.55890000  1.0
