# generated using pymatgen
data_Zn2H9C19(NO4)2
_symmetry_space_group_name_H-M   'P 1'
_cell_length_a   17.96318000
_cell_length_b   17.96318000
_cell_length_c   28.52048000
_cell_angle_alpha   90.00000000
_cell_angle_beta   90.00000000
_cell_angle_gamma   90.00000000
_symmetry_Int_Tables_number   1
_chemical_formula_structural   Zn2H9C19(NO4)2
_chemical_formula_sum   'Zn16 H72 C152 N16 O64'
_cell_volume   9202.86971892
_cell_formula_units_Z   8
loop_
 _symmetry_equiv_pos_site_id
 _symmetry_equiv_pos_as_xyz
  1  'x, y, z'
loop_
 _atom_site_type_symbol
 _atom_site_label
 _atom_site_symmetry_multiplicity
 _atom_site_fract_x
 _atom_site_fract_y
 _atom_site_fract_z
 _atom_site_occupancy
  Zn  Zn1  1  0.53785000  0.03785000  0.97061000  1.0
  Zn  Zn2  1  0.96215000  0.46215000  0.97061000  1.0
  Zn  Zn3  1  0.46215000  0.53785000  0.47061000  1.0
  Zn  Zn4  1  0.03785000  0.96215000  0.47061000  1.0
  Zn  Zn5  1  0.96215000  0.03785000  0.52939000  1.0
  Zn  Zn6  1  0.53785000  0.46215000  0.52939000  1.0
  Zn  Zn7  1  0.03785000  0.53785000  0.02939000  1.0
  Zn  Zn8  1  0.46215000  0.96215000  0.02939000  1.0
  Zn  Zn9  1  0.25000000  0.17965000  0.25000000  1.0
  Zn  Zn10  1  0.25000000  0.32035000  0.25000000  1.0
  Zn  Zn11  1  0.32035000  0.25000000  0.75000000  1.0
  Zn  Zn12  1  0.17965000  0.25000000  0.75000000  1.0
  Zn  Zn13  1  0.75000000  0.82035000  0.75000000  1.0
  Zn  Zn14  1  0.75000000  0.67965000  0.75000000  1.0
  Zn  Zn15  1  0.67965000  0.75000000  0.25000000  1.0
  Zn  Zn16  1  0.82035000  0.75000000  0.25000000  1.0
  H  H1  1  0.38400000  0.13563000  0.12773000  1.0
  H  H2  1  0.43682000  0.36625000  0.15381000  1.0
  H  H3  1  0.54194000  0.24847000  0.03891000  1.0
  H  H4  1  0.49528000  0.39455000  0.01172000  1.0
  H  H5  1  0.11600000  0.36437000  0.12773000  1.0
  H  H6  1  0.06318000  0.13375000  0.15381000  1.0
  H  H7  1  0.95806000  0.25153000  0.03891000  1.0
  H  H8  1  0.00471000  0.10545000  0.01172000  1.0
  H  H9  1  0.36437000  0.38400000  0.62773000  1.0
  H  H10  1  0.13375000  0.43682000  0.65381000  1.0
  H  H11  1  0.25153000  0.54194000  0.53891000  1.0
  H  H12  1  0.10545000  0.49528000  0.51171000  1.0
  H  H13  1  0.13563000  0.11600000  0.62773000  1.0
  H  H14  1  0.36625000  0.06318000  0.65381000  1.0
  H  H15  1  0.24847000  0.95806000  0.53891000  1.0
  H  H16  1  0.39455000  0.00471000  0.51171000  1.0
  H  H17  1  0.11600000  0.13563000  0.37227000  1.0
  H  H18  1  0.06318000  0.36625000  0.34619000  1.0
  H  H19  1  0.95806000  0.24847000  0.46109000  1.0
  H  H20  1  0.00471000  0.39455000  0.48828000  1.0
  H  H21  1  0.38400000  0.36437000  0.37227000  1.0
  H  H22  1  0.43682000  0.13375000  0.34619000  1.0
  H  H23  1  0.54194000  0.25153000  0.46109000  1.0
  H  H24  1  0.49528000  0.10545000  0.48828000  1.0
  H  H25  1  0.13563000  0.38400000  0.87227000  1.0
  H  H26  1  0.36625000  0.43682000  0.84619000  1.0
  H  H27  1  0.24847000  0.54194000  0.96108000  1.0
  H  H28  1  0.39455000  0.49528000  0.98828000  1.0
  H  H29  1  0.36437000  0.11600000  0.87227000  1.0
  H  H30  1  0.13375000  0.06318000  0.84619000  1.0
  H  H31  1  0.25153000  0.95806000  0.96108000  1.0
  H  H32  1  0.10545000  0.00471000  0.98828000  1.0
  H  H33  1  0.61600000  0.86437000  0.87227000  1.0
  H  H34  1  0.56318000  0.63374000  0.84619000  1.0
  H  H35  1  0.45806000  0.75152000  0.96108000  1.0
  H  H36  1  0.50471000  0.60544000  0.98828000  1.0
  H  H37  1  0.88400000  0.63563000  0.87227000  1.0
  H  H38  1  0.93682000  0.86625000  0.84619000  1.0
  H  H39  1  0.04194000  0.74847000  0.96108000  1.0
  H  H40  1  0.99529000  0.89455000  0.98828000  1.0
  H  H41  1  0.63563000  0.61600000  0.37227000  1.0
  H  H42  1  0.86625000  0.56318000  0.34619000  1.0
  H  H43  1  0.74847000  0.45806000  0.46109000  1.0
  H  H44  1  0.89455000  0.50471000  0.48828000  1.0
  H  H45  1  0.86437000  0.88400000  0.37227000  1.0
  H  H46  1  0.63374000  0.93682000  0.34619000  1.0
  H  H47  1  0.75152000  0.04194000  0.46109000  1.0
  H  H48  1  0.60544000  0.99529000  0.48828000  1.0
  H  H49  1  0.88400000  0.86437000  0.62773000  1.0
  H  H50  1  0.93682000  0.63374000  0.65381000  1.0
  H  H51  1  0.04194000  0.75152000  0.53891000  1.0
  H  H52  1  0.99529000  0.60544000  0.51171000  1.0
  H  H53  1  0.61600000  0.63563000  0.62773000  1.0
  H  H54  1  0.56318000  0.86625000  0.65381000  1.0
  H  H55  1  0.45806000  0.74847000  0.53891000  1.0
  H  H56  1  0.50471000  0.89455000  0.51171000  1.0
  H  H57  1  0.86437000  0.61600000  0.12773000  1.0
  H  H58  1  0.63374000  0.56318000  0.15381000  1.0
  H  H59  1  0.75152000  0.45806000  0.03891000  1.0
  H  H60  1  0.60544000  0.50471000  0.01172000  1.0
  H  H61  1  0.63563000  0.88400000  0.12773000  1.0
  H  H62  1  0.86625000  0.93682000  0.15381000  1.0
  H  H63  1  0.74847000  0.04194000  0.03891000  1.0
  H  H64  1  0.89455000  0.99529000  0.01172000  1.0
  H  H65  1  0.60851000  0.39149000  0.14246000  1.0
  H  H66  1  0.89149000  0.10851000  0.14246000  1.0
  H  H67  1  0.10851000  0.60851000  0.64246000  1.0
  H  H68  1  0.39149000  0.89149000  0.64246000  1.0
  H  H69  1  0.89149000  0.39149000  0.35753000  1.0
  H  H70  1  0.60851000  0.10851000  0.35753000  1.0
  H  H71  1  0.39149000  0.60851000  0.85753000  1.0
  H  H72  1  0.10851000  0.89149000  0.85753000  1.0
  C  C1  1  0.46281000  0.18471000  0.08007000  1.0
  C  C2  1  0.41490000  0.18556000  0.11859000  1.0
  C  C3  1  0.44532000  0.31557000  0.13371000  1.0
  C  C4  1  0.49342000  0.31334000  0.09548000  1.0
  C  C5  1  0.50333000  0.24953000  0.06818000  1.0
  C  C6  1  0.53420000  0.41208000  0.03845000  1.0
  C  C7  1  0.35092000  0.25139000  0.18468000  1.0
  C  C8  1  0.47293000  0.11608000  0.05176000  1.0
  C  C9  1  0.40503000  0.25051000  0.14545000  1.0
  C  C10  1  0.03719000  0.31529000  0.08007000  1.0
  C  C11  1  0.08510000  0.31444000  0.11859000  1.0
  C  C12  1  0.05468000  0.18443000  0.13371000  1.0
  C  C13  1  0.00658000  0.18666000  0.09548000  1.0
  C  C14  1  0.99666000  0.25047000  0.06818000  1.0
  C  C15  1  0.96580000  0.08792000  0.03844000  1.0
  C  C16  1  0.14908000  0.24861000  0.18468000  1.0
  C  C17  1  0.02707000  0.38392000  0.05176000  1.0
  C  C18  1  0.09497000  0.24949000  0.14545000  1.0
  C  C19  1  0.31529000  0.46281000  0.58007000  1.0
  C  C20  1  0.31444000  0.41490000  0.61859000  1.0
  C  C21  1  0.18443000  0.44532000  0.63371000  1.0
  C  C22  1  0.18666000  0.49342000  0.59548000  1.0
  C  C23  1  0.25047000  0.50333000  0.56818000  1.0
  C  C24  1  0.08792000  0.53420000  0.53844000  1.0
  C  C25  1  0.24861000  0.35092000  0.68468000  1.0
  C  C26  1  0.38392000  0.47293000  0.55176000  1.0
  C  C27  1  0.24949000  0.40503000  0.64544000  1.0
  C  C28  1  0.18471000  0.03719000  0.58007000  1.0
  C  C29  1  0.18556000  0.08510000  0.61859000  1.0
  C  C30  1  0.31557000  0.05468000  0.63371000  1.0
  C  C31  1  0.31334000  0.00658000  0.59548000  1.0
  C  C32  1  0.24953000  0.99666000  0.56818000  1.0
  C  C33  1  0.41208000  0.96580000  0.53844000  1.0
  C  C34  1  0.25139000  0.14908000  0.68468000  1.0
  C  C35  1  0.11608000  0.02707000  0.55176000  1.0
  C  C36  1  0.25051000  0.09497000  0.64544000  1.0
  C  C37  1  0.03719000  0.18471000  0.41993000  1.0
  C  C38  1  0.08510000  0.18556000  0.38141000  1.0
  C  C39  1  0.05468000  0.31557000  0.36629000  1.0
  C  C40  1  0.00658000  0.31334000  0.40452000  1.0
  C  C41  1  0.99666000  0.24953000  0.43182000  1.0
  C  C42  1  0.96580000  0.41208000  0.46155000  1.0
  C  C43  1  0.14908000  0.25139000  0.31532000  1.0
  C  C44  1  0.02707000  0.11608000  0.44824000  1.0
  C  C45  1  0.09497000  0.25051000  0.35455000  1.0
  C  C46  1  0.46281000  0.31529000  0.41993000  1.0
  C  C47  1  0.41490000  0.31444000  0.38141000  1.0
  C  C48  1  0.44532000  0.18443000  0.36629000  1.0
  C  C49  1  0.49342000  0.18666000  0.40452000  1.0
  C  C50  1  0.50333000  0.25047000  0.43182000  1.0
  C  C51  1  0.53420000  0.08792000  0.46155000  1.0
  C  C52  1  0.35092000  0.24861000  0.31532000  1.0
  C  C53  1  0.47293000  0.38392000  0.44824000  1.0
  C  C54  1  0.40503000  0.24949000  0.35455000  1.0
  C  C55  1  0.18471000  0.46281000  0.91993000  1.0
  C  C56  1  0.18556000  0.41490000  0.88141000  1.0
  C  C57  1  0.31557000  0.44532000  0.86628000  1.0
  C  C58  1  0.31334000  0.49342000  0.90452000  1.0
  C  C59  1  0.24953000  0.50333000  0.93182000  1.0
  C  C60  1  0.41208000  0.53420000  0.96155000  1.0
  C  C61  1  0.25139000  0.35092000  0.81532000  1.0
  C  C62  1  0.11608000  0.47293000  0.94824000  1.0
  C  C63  1  0.25051000  0.40503000  0.85455000  1.0
  C  C64  1  0.31529000  0.03719000  0.91993000  1.0
  C  C65  1  0.31444000  0.08510000  0.88141000  1.0
  C  C66  1  0.18443000  0.05468000  0.86628000  1.0
  C  C67  1  0.18666000  0.00658000  0.90452000  1.0
  C  C68  1  0.25047000  0.99666000  0.93182000  1.0
  C  C69  1  0.08792000  0.96580000  0.96155000  1.0
  C  C70  1  0.24861000  0.14908000  0.81532000  1.0
  C  C71  1  0.38392000  0.02707000  0.94824000  1.0
  C  C72  1  0.24949000  0.09497000  0.85455000  1.0
  C  C73  1  0.53719000  0.81529000  0.91993000  1.0
  C  C74  1  0.58510000  0.81444000  0.88141000  1.0
  C  C75  1  0.55468000  0.68443000  0.86628000  1.0
  C  C76  1  0.50658000  0.68666000  0.90452000  1.0
  C  C77  1  0.49667000  0.75047000  0.93182000  1.0
  C  C78  1  0.46580000  0.58792000  0.96155000  1.0
  C  C79  1  0.64908000  0.74861000  0.81532000  1.0
  C  C80  1  0.52707000  0.88392000  0.94824000  1.0
  C  C81  1  0.59497000  0.74949000  0.85455000  1.0
  C  C82  1  0.96281000  0.68471000  0.91993000  1.0
  C  C83  1  0.91490000  0.68556000  0.88141000  1.0
  C  C84  1  0.94532000  0.81557000  0.86628000  1.0
  C  C85  1  0.99342000  0.81334000  0.90452000  1.0
  C  C86  1  0.00333000  0.74952000  0.93182000  1.0
  C  C87  1  0.03420000  0.91208000  0.96155000  1.0
  C  C88  1  0.85092000  0.75139000  0.81532000  1.0
  C  C89  1  0.97293000  0.61608000  0.94824000  1.0
  C  C90  1  0.90503000  0.75051000  0.85455000  1.0
  C  C91  1  0.68471000  0.53719000  0.41993000  1.0
  C  C92  1  0.68556000  0.58510000  0.38141000  1.0
  C  C93  1  0.81557000  0.55468000  0.36629000  1.0
  C  C94  1  0.81334000  0.50658000  0.40452000  1.0
  C  C95  1  0.74952000  0.49667000  0.43182000  1.0
  C  C96  1  0.91208000  0.46580000  0.46155000  1.0
  C  C97  1  0.75139000  0.64908000  0.31532000  1.0
  C  C98  1  0.61608000  0.52707000  0.44824000  1.0
  C  C99  1  0.75051000  0.59497000  0.35455000  1.0
  C  C100  1  0.81529000  0.96281000  0.41993000  1.0
  C  C101  1  0.81444000  0.91490000  0.38141000  1.0
  C  C102  1  0.68443000  0.94532000  0.36629000  1.0
  C  C103  1  0.68666000  0.99342000  0.40452000  1.0
  C  C104  1  0.75047000  0.00333000  0.43182000  1.0
  C  C105  1  0.58792000  0.03420000  0.46155000  1.0
  C  C106  1  0.74861000  0.85092000  0.31532000  1.0
  C  C107  1  0.88392000  0.97293000  0.44824000  1.0
  C  C108  1  0.74949000  0.90503000  0.35455000  1.0
  C  C109  1  0.96281000  0.81529000  0.58007000  1.0
  C  C110  1  0.91490000  0.81444000  0.61859000  1.0
  C  C111  1  0.94532000  0.68443000  0.63371000  1.0
  C  C112  1  0.99342000  0.68666000  0.59548000  1.0
  C  C113  1  0.00333000  0.75047000  0.56818000  1.0
  C  C114  1  0.03420000  0.58792000  0.53844000  1.0
  C  C115  1  0.85092000  0.74861000  0.68468000  1.0
  C  C116  1  0.97293000  0.88392000  0.55176000  1.0
  C  C117  1  0.90503000  0.74949000  0.64544000  1.0
  C  C118  1  0.53719000  0.68471000  0.58007000  1.0
  C  C119  1  0.58510000  0.68556000  0.61859000  1.0
  C  C120  1  0.55468000  0.81557000  0.63371000  1.0
  C  C121  1  0.50658000  0.81334000  0.59548000  1.0
  C  C122  1  0.49667000  0.74952000  0.56818000  1.0
  C  C123  1  0.46580000  0.91208000  0.53844000  1.0
  C  C124  1  0.64908000  0.75139000  0.68468000  1.0
  C  C125  1  0.52707000  0.61608000  0.55176000  1.0
  C  C126  1  0.59497000  0.75051000  0.64544000  1.0
  C  C127  1  0.81529000  0.53719000  0.08007000  1.0
  C  C128  1  0.81444000  0.58510000  0.11859000  1.0
  C  C129  1  0.68443000  0.55468000  0.13371000  1.0
  C  C130  1  0.68666000  0.50658000  0.09548000  1.0
  C  C131  1  0.75047000  0.49667000  0.06818000  1.0
  C  C132  1  0.58792000  0.46580000  0.03845000  1.0
  C  C133  1  0.74861000  0.64908000  0.18468000  1.0
  C  C134  1  0.88392000  0.52707000  0.05176000  1.0
  C  C135  1  0.74949000  0.59497000  0.14545000  1.0
  C  C136  1  0.68471000  0.96281000  0.08007000  1.0
  C  C137  1  0.68556000  0.91490000  0.11859000  1.0
  C  C138  1  0.81557000  0.94532000  0.13371000  1.0
  C  C139  1  0.81334000  0.99342000  0.09548000  1.0
  C  C140  1  0.74952000  0.00333000  0.06818000  1.0
  C  C141  1  0.91208000  0.03420000  0.03844000  1.0
  C  C142  1  0.75139000  0.85092000  0.18468000  1.0
  C  C143  1  0.61608000  0.97293000  0.05176000  1.0
  C  C144  1  0.75051000  0.90503000  0.14545000  1.0
  C  C145  1  0.58921000  0.41079000  0.10877000  1.0
  C  C146  1  0.91079000  0.08921000  0.10877000  1.0
  C  C147  1  0.08921000  0.58921000  0.60877000  1.0
  C  C148  1  0.41079000  0.91079000  0.60877000  1.0
  C  C149  1  0.91079000  0.41079000  0.39123000  1.0
  C  C150  1  0.58921000  0.08921000  0.39123000  1.0
  C  C151  1  0.41079000  0.58921000  0.89123000  1.0
  C  C152  1  0.08921000  0.91079000  0.89123000  1.0
  N  N1  1  0.53427000  0.37900000  0.08257000  1.0
  N  N2  1  0.96572000  0.12100000  0.08257000  1.0
  N  N3  1  0.12100000  0.53427000  0.58257000  1.0
  N  N4  1  0.37900000  0.96572000  0.58257000  1.0
  N  N5  1  0.96572000  0.37900000  0.41743000  1.0
  N  N6  1  0.53427000  0.12100000  0.41743000  1.0
  N  N7  1  0.37900000  0.53427000  0.91743000  1.0
  N  N8  1  0.12100000  0.96572000  0.91743000  1.0
  N  N9  1  0.46572000  0.62100000  0.91743000  1.0
  N  N10  1  0.03427000  0.87899000  0.91743000  1.0
  N  N11  1  0.87899000  0.46572000  0.41743000  1.0
  N  N12  1  0.62100000  0.03427000  0.41743000  1.0
  N  N13  1  0.03427000  0.62100000  0.58257000  1.0
  N  N14  1  0.46572000  0.87899000  0.58257000  1.0
  N  N15  1  0.62100000  0.46572000  0.08257000  1.0
  N  N16  1  0.87899000  0.03427000  0.08257000  1.0
  O  O1  1  0.51130000  0.12267000  0.01390000  1.0
  O  O2  1  0.44388000  0.05556000  0.06706000  1.0
  O  O3  1  0.31841000  0.18933000  0.19448000  1.0
  O  O4  1  0.33987000  0.31366000  0.20586000  1.0
  O  O5  1  0.98870000  0.37733000  0.01390000  1.0
  O  O6  1  0.05612000  0.44444000  0.06706000  1.0
  O  O7  1  0.18159000  0.31067000  0.19448000  1.0
  O  O8  1  0.16013000  0.18634000  0.20586000  1.0
  O  O9  1  0.37733000  0.51130000  0.51390000  1.0
  O  O10  1  0.44444000  0.44388000  0.56706000  1.0
  O  O11  1  0.31067000  0.31841000  0.69448000  1.0
  O  O12  1  0.18634000  0.33987000  0.70586000  1.0
  O  O13  1  0.12267000  0.98870000  0.51390000  1.0
  O  O14  1  0.05556000  0.05612000  0.56706000  1.0
  O  O15  1  0.18933000  0.18159000  0.69448000  1.0
  O  O16  1  0.31366000  0.16013000  0.70586000  1.0
  O  O17  1  0.98870000  0.12267000  0.48610000  1.0
  O  O18  1  0.05612000  0.05556000  0.43294000  1.0
  O  O19  1  0.18159000  0.18933000  0.30552000  1.0
  O  O20  1  0.16013000  0.31366000  0.29413000  1.0
  O  O21  1  0.51130000  0.37733000  0.48610000  1.0
  O  O22  1  0.44388000  0.44444000  0.43294000  1.0
  O  O23  1  0.31841000  0.31067000  0.30552000  1.0
  O  O24  1  0.33987000  0.18634000  0.29413000  1.0
  O  O25  1  0.12267000  0.51130000  0.98610000  1.0
  O  O26  1  0.05556000  0.44388000  0.93294000  1.0
  O  O27  1  0.18933000  0.31841000  0.80552000  1.0
  O  O28  1  0.31366000  0.33987000  0.79413000  1.0
  O  O29  1  0.37733000  0.98870000  0.98610000  1.0
  O  O30  1  0.44444000  0.05612000  0.93294000  1.0
  O  O31  1  0.31067000  0.18159000  0.80552000  1.0
  O  O32  1  0.18634000  0.16013000  0.79413000  1.0
  O  O33  1  0.48870000  0.87733000  0.98610000  1.0
  O  O34  1  0.55612000  0.94444000  0.93294000  1.0
  O  O35  1  0.68159000  0.81067000  0.80552000  1.0
  O  O36  1  0.66013000  0.68634000  0.79413000  1.0
  O  O37  1  0.01130000  0.62267000  0.98610000  1.0
  O  O38  1  0.94388000  0.55556000  0.93294000  1.0
  O  O39  1  0.81841000  0.68933000  0.80552000  1.0
  O  O40  1  0.83987000  0.81366000  0.79413000  1.0
  O  O41  1  0.62267000  0.48870000  0.48610000  1.0
  O  O42  1  0.55556000  0.55612000  0.43294000  1.0
  O  O43  1  0.68933000  0.68159000  0.30552000  1.0
  O  O44  1  0.81366000  0.66013000  0.29413000  1.0
  O  O45  1  0.87733000  0.01130000  0.48610000  1.0
  O  O46  1  0.94444000  0.94388000  0.43294000  1.0
  O  O47  1  0.81067000  0.81841000  0.30552000  1.0
  O  O48  1  0.68634000  0.83987000  0.29413000  1.0
  O  O49  1  0.01130000  0.87733000  0.51390000  1.0
  O  O50  1  0.94388000  0.94444000  0.56706000  1.0
  O  O51  1  0.81841000  0.81067000  0.69448000  1.0
  O  O52  1  0.83987000  0.68634000  0.70586000  1.0
  O  O53  1  0.48870000  0.62267000  0.51390000  1.0
  O  O54  1  0.55612000  0.55556000  0.56706000  1.0
  O  O55  1  0.68159000  0.68933000  0.69448000  1.0
  O  O56  1  0.66013000  0.81366000  0.70586000  1.0
  O  O57  1  0.87733000  0.48870000  0.01390000  1.0
  O  O58  1  0.94444000  0.55612000  0.06706000  1.0
  O  O59  1  0.81067000  0.68159000  0.19448000  1.0
  O  O60  1  0.68634000  0.66013000  0.20586000  1.0
  O  O61  1  0.62267000  0.01130000  0.01390000  1.0
  O  O62  1  0.55556000  0.94388000  0.06706000  1.0
  O  O63  1  0.68933000  0.81841000  0.19448000  1.0
  O  O64  1  0.81366000  0.83987000  0.20586000  1.0
