# generated using pymatgen
data_Zn4H36C35(N3O2)5
_symmetry_space_group_name_H-M   'P 1'
_cell_length_a   14.68858000
_cell_length_b   15.33027000
_cell_length_c   16.26894000
_cell_angle_alpha   71.55700000
_cell_angle_beta   64.43714000
_cell_angle_gamma   65.39975000
_symmetry_Int_Tables_number   1
_chemical_formula_structural   Zn4H36C35(N3O2)5
_chemical_formula_sum   'Zn8 H72 C70 N30 O20'
_cell_volume   2962.82178775
_cell_formula_units_Z   2
loop_
 _symmetry_equiv_pos_site_id
 _symmetry_equiv_pos_as_xyz
  1  'x, y, z'
loop_
 _atom_site_type_symbol
 _atom_site_label
 _atom_site_symmetry_multiplicity
 _atom_site_fract_x
 _atom_site_fract_y
 _atom_site_fract_z
 _atom_site_occupancy
  Zn  Zn0  1  0.70163000  0.10318000  0.15896000  1
  Zn  Zn1  1  0.20439000  0.99902000  0.38736000  1
  Zn  Zn2  1  0.31707000  0.09401000  0.48263000  1
  Zn  Zn3  1  0.83575000  0.34574000  0.35769000  1
  Zn  Zn4  1  0.29836000  0.89685000  0.84104000  1
  Zn  Zn5  1  0.79561000  0.00100000  0.61264000  1
  Zn  Zn6  1  0.68294000  0.90598000  0.51738000  1
  Zn  Zn7  1  0.16418000  0.65422000  0.64227000  1
  H  H8  1  0.29299000  0.03125000  0.67837000  1
  H  H9  1  0.21685000  0.29206000  0.52748000  1
  H  H10  1  0.99992000  0.13340000  0.36009000  1
  H  H11  1  0.30573000  0.94981000  0.20194000  1
  H  H12  1  0.52273000  0.12564000  0.35232000  1
  H  H13  1  0.01452000  0.83938000  0.38240000  1
  H  H14  1  0.97725000  0.00345000  0.28206000  1
  H  H15  1  0.93767000  0.91841000  0.26475000  1
  H  H16  1  0.02327000  0.00844000  0.11349000  1
  H  H17  1  0.14057000  0.97163000  0.13884000  1
  H  H18  1  0.04623000  0.83073000  0.13101000  1
  H  H19  1  0.25603000  0.79451000  0.15445000  1
  H  H20  1  0.21991000  0.70470000  0.14106000  1
  H  H21  1  0.06230000  0.72858000  0.28417000  1
  H  H22  1  0.17783000  0.70405000  0.30836000  1
  H  H23  1  0.55321000  0.13179000  0.56349000  1
  H  H24  1  0.43026000  0.18018000  0.72067000  1
  H  H25  1  0.53384000  0.23199000  0.65893000  1
  H  H26  1  0.36660000  0.35882000  0.72888000  1
  H  H27  1  0.29736000  0.33348000  0.67825000  1
  H  H28  1  0.48557000  0.41169000  0.57409000  1
  H  H29  1  0.44759000  0.42798000  0.43251000  1
  H  H30  1  0.34668000  0.37471000  0.50074000  1
  H  H31  1  0.52018000  0.25059000  0.42419000  1
  H  H32  1  0.58493000  0.28084000  0.47546000  1
  H  H33  1  0.92321000  0.56304000  0.11167000  1
  H  H34  1  0.80691000  0.51253000  0.07280000  1
  H  H35  1  0.91631000  0.41052000  0.03211000  1
  H  H36  1  0.09740000  0.37535000  0.04899000  1
  H  H37  1  0.10699000  0.45498000  0.10106000  1
  H  H38  1  0.18832000  0.77344000  0.86614000  1
  H  H39  1  0.17561000  0.71063000  0.79942000  1
  H  H40  1  0.91902000  0.51670000  0.48292000  1
  H  H41  1  0.85782000  0.45934000  0.45099000  1
  H  H42  1  0.58068000  0.02741000  0.97773000  1
  H  H43  1  0.64625000  0.06642000  0.02313000  1
  H  H44  1  0.70703000  0.96875000  0.32164000  1
  H  H45  1  0.78314000  0.70795000  0.47257000  1
  H  H46  1  0.00011000  0.86656000  0.63997000  1
  H  H47  1  0.69428000  0.05018000  0.79811000  1
  H  H48  1  0.47730000  0.87438000  0.64768000  1
  H  H49  1  0.98548000  0.16061000  0.61760000  1
  H  H50  1  0.02276000  0.99654000  0.71794000  1
  H  H51  1  0.06234000  0.08156000  0.73525000  1
  H  H52  1  0.97674000  0.99156000  0.88652000  1
  H  H53  1  0.85945000  0.02835000  0.86117000  1
  H  H54  1  0.95378000  0.16926000  0.86901000  1
  H  H55  1  0.74398000  0.20548000  0.84555000  1
  H  H56  1  0.78010000  0.29529000  0.85895000  1
  H  H57  1  0.93771000  0.27142000  0.71583000  1
  H  H58  1  0.82217000  0.29595000  0.69164000  1
  H  H59  1  0.44677000  0.86829000  0.43651000  1
  H  H60  1  0.56972000  0.81991000  0.27928000  1
  H  H61  1  0.46605000  0.76812000  0.34109000  1
  H  H62  1  0.63333000  0.64130000  0.27110000  1
  H  H63  1  0.70253000  0.66659000  0.32177000  1
  H  H64  1  0.51425000  0.58849000  0.42597000  1
  H  H65  1  0.55238000  0.57213000  0.56750000  1
  H  H66  1  0.65327000  0.62538000  0.49926000  1
  H  H67  1  0.47982000  0.74952000  0.57581000  1
  H  H68  1  0.41503000  0.71924000  0.52453000  1
  H  H69  1  0.07678000  0.43693000  0.88838000  1
  H  H70  1  0.19307000  0.48742000  0.92732000  1
  H  H71  1  0.08364000  0.58940000  0.96802000  1
  H  H72  1  0.90254000  0.62459000  0.95113000  1
  H  H73  1  0.89297000  0.54497000  0.89906000  1
  H  H74  1  0.81170000  0.22654000  0.13386000  1
  H  H75  1  0.82435000  0.28939000  0.20057000  1
  H  H76  1  0.08096000  0.48325000  0.51716000  1
  H  H77  1  0.14215000  0.54061000  0.54907000  1
  H  H78  1  0.41932000  0.97258000  0.02230000  1
  H  H79  1  0.35377000  0.93357000  0.97688000  1
  C  C80  1  0.27474000  0.97420000  0.66748000  1
  C  C81  1  0.24651000  0.91430000  0.57284000  1
  C  C82  1  0.22831000  0.83405000  0.64154000  1
  C  C83  1  0.22913000  0.82772000  0.72961000  1
  C  C84  1  0.21291000  0.82364000  0.51919000  1
  C  C85  1  0.16096000  0.29092000  0.50074000  1
  C  C86  1  0.11095000  0.20787000  0.44306000  1
  C  C87  1  0.02037000  0.28919000  0.43811000  1
  C  C88  1  0.00292000  0.37455000  0.46728000  1
  C  C89  1  0.02110000  0.17414000  0.38861000  1
  C  C90  1  0.36055000  0.98135000  0.20061000  1
  C  C91  1  0.41343000  0.03955000  0.27839000  1
  C  C92  1  0.50158000  0.05053000  0.19906000  1
  C  C93  1  0.51286000  0.02831000  0.11606000  1
  C  C94  1  0.50180000  0.09757000  0.31193000  1
  C  C95  1  0.07139000  0.85268000  0.31206000  1
  C  C96  1  0.00748000  0.93578000  0.25506000  1
  C  C97  1  0.07275000  0.94962000  0.15136000  1
  C  C98  1  0.11456000  0.85334000  0.11568000  1
  C  C99  1  0.18761000  0.77325000  0.16741000  1
  C  C100  1  0.12460000  0.75807000  0.27166000  1
  C  C101  1  0.15006000  0.88135000  0.32835000  1
  C  C102  1  0.16913000  0.86083000  0.01222000  1
  C  C103  1  0.48205000  0.19765000  0.57172000  1
  C  C104  1  0.45835000  0.23220000  0.65994000  1
  C  C105  1  0.37590000  0.33450000  0.66821000  1
  C  C106  1  0.40897000  0.40877000  0.58067000  1
  C  C107  1  0.42370000  0.37572000  0.49489000  1
  C  C108  1  0.50874000  0.27484000  0.48558000  1
  C  C109  1  0.39581000  0.16280000  0.57692000  1
  C  C110  1  0.32769000  0.50886000  0.59554000  1
  C  C111  1  0.94782000  0.48792000  0.10133000  1
  C  C112  1  0.89421000  0.48623000  0.03942000  1
  C  C113  1  0.07069000  0.45203000  0.05583000  1
  C  C114  1  0.91495000  0.42929000  0.19667000  1
  C  C115  1  0.72528000  0.02581000  0.33253000  1
  C  C116  1  0.75345000  0.08573000  0.42719000  1
  C  C117  1  0.77163000  0.16598000  0.35848000  1
  C  C118  1  0.77085000  0.17230000  0.27041000  1
  C  C119  1  0.78696000  0.17644000  0.48086000  1
  C  C120  1  0.83903000  0.70908000  0.49931000  1
  C  C121  1  0.88906000  0.79213000  0.55698000  1
  C  C122  1  0.97960000  0.71077000  0.56197000  1
  C  C123  1  0.99703000  0.62542000  0.53281000  1
  C  C124  1  0.97890000  0.82584000  0.61144000  1
  C  C125  1  0.63947000  0.01865000  0.79942000  1
  C  C126  1  0.58660000  0.96046000  0.72163000  1
  C  C127  1  0.49843000  0.94947000  0.80096000  1
  C  C128  1  0.48715000  0.97169000  0.88396000  1
  C  C129  1  0.49823000  0.90244000  0.68808000  1
  C  C130  1  0.92861000  0.14732000  0.68794000  1
  C  C131  1  0.99252000  0.06421000  0.74495000  1
  C  C132  1  0.92726000  0.05037000  0.84865000  1
  C  C133  1  0.88544000  0.14666000  0.88433000  1
  C  C134  1  0.81240000  0.22675000  0.83259000  1
  C  C135  1  0.87541000  0.24193000  0.72834000  1
  C  C136  1  0.84994000  0.11866000  0.67166000  1
  C  C137  1  0.83085000  0.13918000  0.98778000  1
  C  C138  1  0.51791000  0.80244000  0.42827000  1
  C  C139  1  0.54157000  0.76792000  0.34004000  1
  C  C140  1  0.62399000  0.66559000  0.33179000  1
  C  C141  1  0.59091000  0.59132000  0.41936000  1
  C  C142  1  0.57625000  0.62438000  0.50511000  1
  C  C143  1  0.49121000  0.72526000  0.51443000  1
  C  C144  1  0.60418000  0.83723000  0.42309000  1
  C  C145  1  0.67215000  0.49118000  0.40444000  1
  C  C146  1  0.05217000  0.51203000  0.89876000  1
  C  C147  1  0.10576000  0.51370000  0.96068000  1
  C  C148  1  0.92929000  0.54791000  0.94427000  1
  C  C149  1  0.08512000  0.57067000  0.80343000  1
  N  N150  1  0.25661000  0.90038000  0.73826000  1
  N  N151  1  0.27154000  0.98503000  0.58407000  1
  N  N152  1  0.20661000  0.77783000  0.60427000  1
  N  N153  1  0.23534000  0.90765000  0.49606000  1
  N  N154  1  0.20644000  0.75927000  0.80222000  1
  N  N155  1  0.07866000  0.37161000  0.49737000  1
  N  N156  1  0.18320000  0.20604000  0.47559000  1
  N  N157  1  0.96414000  0.26606000  0.40350000  1
  N  N158  1  0.11078000  0.13495000  0.41143000  1
  N  N159  1  0.91996000  0.45543000  0.46746000  1
  N  N160  1  0.43924000  0.99209000  0.12122000  1
  N  N161  1  0.34093000  0.00483000  0.28104000  1
  N  N162  1  0.55785000  0.08782000  0.22214000  1
  N  N163  1  0.41423000  0.06957000  0.34938000  1
  N  N164  1  0.58772000  0.04037000  0.03339000  1
  N  N165  1  0.74341000  0.09962000  0.26174000  1
  N  N166  1  0.72846000  0.01498000  0.41595000  1
  N  N167  1  0.79327000  0.22223000  0.39578000  1
  N  N168  1  0.76457000  0.09241000  0.50398000  1
  N  N169  1  0.79351000  0.24076000  0.19778000  1
  N  N170  1  0.92132000  0.62838000  0.50270000  1
  N  N171  1  0.81682000  0.79396000  0.52444000  1
  N  N172  1  0.03582000  0.73391000  0.59658000  1
  N  N173  1  0.88925000  0.86505000  0.58858000  1
  N  N174  1  0.07998000  0.54452000  0.53267000  1
  N  N175  1  0.56077000  0.00791000  0.87880000  1
  N  N176  1  0.65910000  0.99516000  0.71899000  1
  N  N177  1  0.44217000  0.91219000  0.77787000  1
  N  N178  1  0.58580000  0.93044000  0.65063000  1
  N  N179  1  0.41230000  0.95962000  0.96664000  1
  O  O180  1  0.14234000  0.83095000  0.96575000  1
  O  O181  1  0.24724000  0.89900000  0.97151000  1
  O  O182  1  0.11262000  0.96863000  0.34884000  1
  O  O183  1  0.24091000  0.82309000  0.32493000  1
  O  O184  1  0.41369000  0.13807000  0.49954000  1
  O  O185  1  0.31855000  0.15513000  0.64927000  1
  O  O186  1  0.26002000  0.54954000  0.55251000  1
  O  O187  1  0.32336000  0.55063000  0.65379000  1
  O  O188  1  0.89544000  0.35047000  0.20879000  1
  O  O189  1  0.90804000  0.45775000  0.26490000  1
  O  O190  1  0.85763000  0.16907000  0.03426000  1
  O  O191  1  0.75270000  0.10106000  0.02848000  1
  O  O192  1  0.88737000  0.03137000  0.65118000  1
  O  O193  1  0.75910000  0.17694000  0.67505000  1
  O  O194  1  0.58631000  0.86195000  0.50048000  1
  O  O195  1  0.68147000  0.84486000  0.35074000  1
  O  O196  1  0.73994000  0.45043000  0.44735000  1
  O  O197  1  0.67631000  0.44950000  0.34621000  1
  O  O198  1  0.10475000  0.64941000  0.79130000  1
  O  O199  1  0.09197000  0.54224000  0.73521000  1
