# generated using pymatgen
data_Cd3H6C18(NO)8
_symmetry_space_group_name_H-M   'P 1'
_cell_length_a   11.61489281
_cell_length_b   11.61489281
_cell_length_c   12.86880000
_cell_angle_alpha   106.22855637
_cell_angle_beta   106.22855637
_cell_angle_gamma   102.31065979
_symmetry_Int_Tables_number   1
_chemical_formula_structural   Cd3H6C18(NO)8
_chemical_formula_sum   'Cd6 H12 C36 N16 O16'
_cell_volume   1518.47400239
_cell_formula_units_Z   2
loop_
 _symmetry_equiv_pos_site_id
 _symmetry_equiv_pos_as_xyz
  1  'x, y, z'
loop_
 _atom_site_type_symbol
 _atom_site_label
 _atom_site_symmetry_multiplicity
 _atom_site_fract_x
 _atom_site_fract_y
 _atom_site_fract_z
 _atom_site_occupancy
  C  C1  1  0.08920000  0.16060000  0.61870000  1.0
  C  C2  1  0.09820000  0.19740000  0.51950000  1.0
  C  C3  1  0.13860000  0.03740000  0.73990000  1.0
  C  C4  1  0.01180000  0.17360000  0.77640000  1.0
  C  C5  1  0.14780000  0.07440000  0.64760000  1.0
  C  C6  1  0.02370000  0.21150000  0.68470000  1.0
  C  C7  1  0.93690000  0.22710000  0.84330000  1.0
  C  C8  1  0.19990000  0.94190000  0.76710000  1.0
  C  C9  1  0.06930000  0.08630000  0.80300000  1.0
  C  C19  1  0.33940000  0.41080000  0.88130000  1.0
  C  C20  1  0.30260000  0.40180000  0.98050000  1.0
  C  C21  1  0.46260000  0.36140000  0.76010000  1.0
  C  C22  1  0.32640000  0.48820000  0.72360000  1.0
  C  C23  1  0.42560000  0.35220000  0.85240000  1.0
  C  C24  1  0.28850000  0.47630000  0.81530000  1.0
  C  C25  1  0.27290000  0.56310000  0.65670000  1.0
  C  C26  1  0.55810000  0.30010000  0.73290000  1.0
  C  C27  1  0.41370000  0.43070000  0.69700000  1.0
  C  C37  1  0.91080000  0.83940000  0.38130000  1.0
  C  C38  1  0.90180000  0.80260000  0.48050000  1.0
  C  C39  1  0.86140000  0.96260000  0.26010000  1.0
  C  C40  1  0.98820000  0.82640000  0.22360000  1.0
  C  C41  1  0.85220000  0.92560000  0.35240000  1.0
  C  C42  1  0.97630000  0.78850000  0.31530000  1.0
  C  C43  1  0.06310000  0.77290000  0.15670000  1.0
  C  C44  1  0.80010000  0.05810000  0.23290000  1.0
  C  C45  1  0.93070000  0.91370000  0.19700000  1.0
  C  C55  1  0.66060000  0.58920000  0.11870000  1.0
  C  C56  1  0.69740000  0.59820000  0.01950000  1.0
  C  C57  1  0.53740000  0.63860000  0.23990000  1.0
  C  C58  1  0.67360000  0.51180000  0.27640000  1.0
  C  C59  1  0.57440000  0.64780000  0.14760000  1.0
  C  C60  1  0.71150000  0.52370000  0.18470000  1.0
  C  C61  1  0.72710000  0.43690000  0.34330000  1.0
  C  C62  1  0.44190000  0.69990000  0.26710000  1.0
  C  C63  1  0.58630000  0.56930000  0.30300000  1.0
  Cd  Cd1  1  0.17159000  0.71405000  0.55222000  1.0
  Cd  Cd3  1  0.78595000  0.32841000  0.94778000  1.0
  Cd  Cd5  1  0.82841000  0.28595000  0.44778000  1.0
  Cd  Cd7  1  0.21405000  0.67159000  0.05222000  1.0
  Cd  Cd9  1  0.24672000  0.25328000  0.25000000  1.0
  Cd  Cd11  1  0.75328000  0.74672000  0.75000000  1.0
  H  H1  1  0.19350000  0.04130000  0.60470000  1.0
  H  H2  1  0.98740000  0.27140000  0.66800000  1.0
  H  H3  1  0.06130000  0.06070000  0.86370000  1.0
  H  H7  1  0.45870000  0.30650000  0.89530000  1.0
  H  H8  1  0.22860000  0.51260000  0.83200000  1.0
  H  H9  1  0.43930000  0.43870000  0.63630000  1.0
  H  H13  1  0.80650000  0.95870000  0.39530000  1.0
  H  H14  1  0.01260000  0.72860000  0.33200000  1.0
  H  H15  1  0.93870000  0.93930000  0.13630000  1.0
  H  H19  1  0.54130000  0.69350000  0.10470000  1.0
  H  H20  1  0.77140000  0.48740000  0.16800000  1.0
  H  H21  1  0.56070000  0.56130000  0.36370000  1.0
  N  N1  1  0.06206000  0.27334000  0.38430000  1.0
  N  N2  1  0.15443000  0.22597000  0.38340000  1.0
  N  N3  1  0.02397000  0.25643000  0.47030000  1.0
  N  N4  1  0.17929000  0.17671000  0.46720000  1.0
  N  N9  1  0.22666000  0.43794000  0.11570000  1.0
  N  N10  1  0.27403000  0.34557000  0.11660000  1.0
  N  N11  1  0.24357000  0.47603000  0.02970000  1.0
  N  N12  1  0.32329000  0.32071000  0.03280000  1.0
  N  N17  1  0.93794000  0.72666000  0.61570000  1.0
  N  N18  1  0.84557000  0.77403000  0.61660000  1.0
  N  N19  1  0.97603000  0.74357000  0.52970000  1.0
  N  N20  1  0.82071000  0.82329000  0.53280000  1.0
  N  N25  1  0.77334000  0.56206000  0.88430000  1.0
  N  N26  1  0.72597000  0.65443000  0.88340000  1.0
  N  N27  1  0.75643000  0.52397000  0.97030000  1.0
  N  N28  1  0.67671000  0.67929000  0.96720000  1.0
  O  O1  1  0.25999000  0.89961000  0.70580000  1.0
  O  O2  1  0.90252000  0.17340000  0.90819000  1.0
  O  O3  1  0.18649000  0.90991000  0.84960000  1.0
  O  O4  1  0.90697000  0.32197000  0.83287000  1.0
  O  O9  1  0.60039000  0.24001000  0.79420000  1.0
  O  O10  1  0.32660000  0.59748000  0.59181000  1.0
  O  O11  1  0.59009000  0.31351000  0.65040000  1.0
  O  O12  1  0.17803000  0.59303000  0.66713000  1.0
  O  O17  1  0.74001000  0.10039000  0.29420000  1.0
  O  O18  1  0.09748000  0.82660000  0.09181000  1.0
  O  O19  1  0.81351000  0.09009000  0.15040000  1.0
  O  O20  1  0.09303000  0.67803000  0.16713000  1.0
  O  O25  1  0.39961000  0.75999000  0.20580000  1.0
  O  O26  1  0.67340000  0.40252000  0.40819000  1.0
  O  O27  1  0.40991000  0.68649000  0.34960000  1.0
  O  O28  1  0.82197000  0.40697000  0.33287000  1.0
