# generated using pymatgen
data_CuH16C24(N4O)2
_symmetry_space_group_name_H-M   'P 1'
_cell_length_a   12.71336000
_cell_length_b   12.74028000
_cell_length_c   16.34357000
_cell_angle_alpha   89.96582000
_cell_angle_beta   89.90399000
_cell_angle_gamma   89.65765000
_symmetry_Int_Tables_number   1
_chemical_formula_structural   CuH16C24(N4O)2
_chemical_formula_sum   'Cu4 H64 C96 N32 O8'
_cell_volume   2647.14547078
_cell_formula_units_Z   4
loop_
 _symmetry_equiv_pos_site_id
 _symmetry_equiv_pos_as_xyz
  1  'x, y, z'
loop_
 _atom_site_type_symbol
 _atom_site_label
 _atom_site_symmetry_multiplicity
 _atom_site_fract_x
 _atom_site_fract_y
 _atom_site_fract_z
 _atom_site_occupancy
  Cu  Cu0  1  0.80134000  0.19893000  0.50086000  1
  Cu  Cu1  1  0.19840000  0.80137000  0.99991000  1
  Cu  Cu2  1  0.69719000  0.69640000  0.75058000  1
  Cu  Cu3  1  0.30333000  0.30347000  0.25000000  1
  H  H4  1  0.97756000  0.25936000  0.40453000  1
  H  H5  1  0.01095000  0.30002000  0.25767000  1
  H  H6  1  0.67491000  0.34445000  0.22930000  1
  H  H7  1  0.65597000  0.30186000  0.37673000  1
  H  H8  1  0.87424000  0.54340000  0.76328000  1
  H  H9  1  0.95188000  0.47148000  0.89029000  1
  H  H10  1  0.64081000  0.47932000  0.99800000  1
  H  H11  1  0.57451000  0.54829000  0.86537000  1
  H  H12  1  0.02281000  0.74443000  0.90269000  1
  H  H13  1  0.98820000  0.70334000  0.75617000  1
  H  H14  1  0.32373000  0.65811000  0.72554000  1
  H  H15  1  0.34426000  0.70173000  0.87242000  1
  H  H16  1  0.12580000  0.45802000  0.26075000  1
  H  H17  1  0.04678000  0.53309000  0.38625000  1
  H  H18  1  0.35580000  0.52399000  0.49644000  1
  H  H19  1  0.42353000  0.45027000  0.36566000  1
  H  H20  1  0.75644000  0.52177000  0.65244000  1
  H  H21  1  0.79424000  0.48931000  0.50502000  1
  H  H22  1  0.83490000  0.82461000  0.47674000  1
  H  H23  1  0.79476000  0.84287000  0.62452000  1
  H  H24  1  0.04170000  0.62507000  0.01156000  1
  H  H25  1  0.96239000  0.54940000  0.13637000  1
  H  H26  1  0.97343000  0.85809000  0.24561000  1
  H  H27  1  0.05176000  0.92260000  0.11558000  1
  H  H28  1  0.24310000  0.47769000  0.15165000  1
  H  H29  1  0.20401000  0.50951000  0.00441000  1
  H  H30  1  0.16201000  0.17436000  0.97755000  1
  H  H31  1  0.20330000  0.15641000  0.12514000  1
  H  H32  1  0.95298000  0.37508000  0.51336000  1
  H  H33  1  0.02986000  0.45242000  0.63834000  1
  H  H34  1  0.02444000  0.14290000  0.74730000  1
  H  H35  1  0.95004000  0.07693000  0.61664000  1
  H  H36  1  0.52391000  0.75732000  0.84948000  1
  H  H37  1  0.49345000  0.79645000  0.99683000  1
  H  H38  1  0.82961000  0.83816000  0.02153000  1
  H  H39  1  0.84588000  0.79696000  0.87361000  1
  H  H40  1  0.62552000  0.04192000  0.48858000  1
  H  H41  1  0.55090000  0.96324000  0.36337000  1
  H  H42  1  0.86041000  0.97967000  0.25403000  1
  H  H43  1  0.92403000  0.05552000  0.38497000  1
  H  H44  1  0.47765000  0.24290000  0.34773000  1
  H  H45  1  0.51036000  0.20279000  0.49466000  1
  H  H46  1  0.17422000  0.16084000  0.52282000  1
  H  H47  1  0.15592000  0.20287000  0.37536000  1
  H  H48  1  0.37452000  0.95583000  0.98799000  1
  H  H49  1  0.45134000  0.03073000  0.86191000  1
  H  H50  1  0.14067000  0.02447000  0.75452000  1
  H  H51  1  0.07514000  0.95216000  0.88598000  1
  H  H52  1  0.74343000  0.02336000  0.59681000  1
  H  H53  1  0.70370000  0.98814000  0.74367000  1
  H  H54  1  0.65888000  0.32276000  0.77513000  1
  H  H55  1  0.70025000  0.34394000  0.62763000  1
  H  H56  1  0.45582000  0.12628000  0.23859000  1
  H  H57  1  0.52977000  0.04735000  0.11267000  1
  H  H58  1  0.52782000  0.35733000  0.00420000  1
  H  H59  1  0.45512000  0.42476000  0.13561000  1
  H  H60  1  0.25952000  0.97658000  0.09775000  1
  H  H61  1  0.30094000  0.00801000  0.24443000  1
  H  H62  1  0.34375000  0.67239000  0.27135000  1
  H  H63  1  0.30109000  0.65511000  0.12396000  1
  H  H64  1  0.54021000  0.87306000  0.73938000  1
  H  H65  1  0.46692000  0.94934000  0.61254000  1
  H  H66  1  0.47880000  0.63909000  0.50521000  1
  H  H67  1  0.54996000  0.57412000  0.63755000  1
  C  C68  1  0.91302000  0.27837000  0.36336000  1
  C  C69  1  0.93126000  0.29996000  0.28204000  1
  C  C70  1  0.84562000  0.32615000  0.23071000  1
  C  C71  1  0.74417000  0.32565000  0.26559000  1
  C  C72  1  0.73320000  0.30190000  0.34797000  1
  C  C73  1  0.86778000  0.35655000  0.14810000  1
  C  C74  1  0.84866000  0.42055000  0.02657000  1
  C  C75  1  0.82439000  0.52680000  0.81597000  1
  C  C76  1  0.86788000  0.48644000  0.88663000  1
  C  C77  1  0.80239000  0.46594000  0.95495000  1
  C  C78  1  0.69445000  0.49052000  0.94697000  1
  C  C79  1  0.65757000  0.52944000  0.87313000  1
  C  C80  1  0.08704000  0.72529000  0.86112000  1
  C  C81  1  0.06807000  0.70344000  0.78000000  1
  C  C82  1  0.15317000  0.67675000  0.72808000  1
  C  C83  1  0.25486000  0.67739000  0.76229000  1
  C  C84  1  0.26661000  0.70155000  0.84449000  1
  C  C85  1  0.13050000  0.64692000  0.64550000  1
  C  C86  1  0.14898000  0.58394000  0.52357000  1
  C  C87  1  0.17487000  0.47479000  0.31372000  1
  C  C88  1  0.13066000  0.51709000  0.38356000  1
  C  C89  1  0.19529000  0.53784000  0.45211000  1
  C  C90  1  0.30304000  0.51202000  0.44512000  1
  C  C91  1  0.34067000  0.47080000  0.37223000  1
  C  C92  1  0.77422000  0.58639000  0.61115000  1
  C  C93  1  0.79429000  0.56872000  0.52949000  1
  C  C94  1  0.81896000  0.65446000  0.47795000  1
  C  C95  1  0.81755000  0.75537000  0.51320000  1
  C  C96  1  0.79536000  0.76579000  0.59589000  1
  C  C97  1  0.84855000  0.63313000  0.39498000  1
  C  C98  1  0.91171000  0.65214000  0.27303000  1
  C  C99  1  0.02482000  0.67491000  0.06420000  1
  C  C100  1  0.98006000  0.63252000  0.13360000  1
  C  C101  1  0.95862000  0.69783000  0.20178000  1
  C  C102  1  0.98604000  0.80465000  0.19474000  1
  C  C103  1  0.02986000  0.84054000  0.12228000  1
  C  C104  1  0.22485000  0.41278000  0.11089000  1
  C  C105  1  0.20403000  0.43033000  0.02940000  1
  C  C106  1  0.17887000  0.34460000  0.97830000  1
  C  C107  1  0.17966000  0.24372000  0.01365000  1
  C  C108  1  0.20268000  0.23334000  0.09623000  1
  C  C109  1  0.14912000  0.36649000  0.89551000  1
  C  C110  1  0.08451000  0.34853000  0.77425000  1
  C  C111  1  0.97126000  0.32553000  0.56588000  1
  C  C112  1  0.01462000  0.36879000  0.63534000  1
  C  C113  1  0.03733000  0.30332000  0.70324000  1
  C  C114  1  0.01176000  0.19609000  0.69627000  1
  C  C115  1  0.96980000  0.15947000  0.62360000  1
  C  C116  1  0.58924000  0.77550000  0.88993000  1
  C  C117  1  0.57264000  0.79631000  0.97154000  1
  C  C118  1  0.65914000  0.82138000  0.02210000  1
  C  C119  1  0.75977000  0.82047000  0.98587000  1
  C  C120  1  0.76916000  0.79745000  0.90321000  1
  C  C121  1  0.63785000  0.85102000  0.10508000  1
  C  C122  1  0.65566000  0.91485000  0.22668000  1
  C  C123  1  0.67581000  0.02590000  0.43593000  1
  C  C124  1  0.63403000  0.98168000  0.36626000  1
  C  C125  1  0.70012000  0.96198000  0.29802000  1
  C  C126  1  0.80676000  0.99051000  0.30515000  1
  C  C127  1  0.84205000  0.03313000  0.37802000  1
  C  C128  1  0.41292000  0.22426000  0.38880000  1
  C  C129  1  0.43078000  0.20304000  0.47020000  1
  C  C130  1  0.34504000  0.17759000  0.52165000  1
  C  C131  1  0.24371000  0.17888000  0.48657000  1
  C  C132  1  0.23314000  0.20217000  0.40404000  1
  C  C133  1  0.36719000  0.14700000  0.60423000  1
  C  C134  1  0.34791000  0.08297000  0.72578000  1
  C  C135  1  0.32462000  0.97312000  0.93546000  1
  C  C136  1  0.36758000  0.01544000  0.86534000  1
  C  C137  1  0.30191000  0.03745000  0.79742000  1
  C  C138  1  0.19438000  0.01232000  0.80530000  1
  C  C139  1  0.15800000  0.97134000  0.87855000  1
  C  C140  1  0.72411000  0.08713000  0.63861000  1
  C  C141  1  0.70318000  0.06793000  0.71990000  1
  C  C142  1  0.67689000  0.15275000  0.77194000  1
  C  C143  1  0.67729000  0.25434000  0.73787000  1
  C  C144  1  0.70027000  0.26633000  0.65543000  1
  C  C145  1  0.64681000  0.13033000  0.85454000  1
  C  C146  1  0.58322000  0.14936000  0.97624000  1
  C  C147  1  0.47370000  0.17551000  0.18587000  1
  C  C148  1  0.51544000  0.13133000  0.11589000  1
  C  C149  1  0.53770000  0.19614000  0.04766000  1
  C  C150  1  0.51437000  0.30421000  0.05515000  1
  C  C151  1  0.47354000  0.34170000  0.12829000  1
  C  C152  1  0.27832000  0.91151000  0.13844000  1
  C  C153  1  0.30033000  0.92872000  0.21979000  1
  C  C154  1  0.32625000  0.84278000  0.27090000  1
  C  C155  1  0.32510000  0.74194000  0.23542000  1
  C  C156  1  0.30127000  0.73198000  0.15295000  1
  C  C157  1  0.35565000  0.86448000  0.35379000  1
  C  C158  1  0.41814000  0.84574000  0.47590000  1
  C  C159  1  0.52451000  0.82307000  0.68673000  1
  C  C160  1  0.48322000  0.86574000  0.61608000  1
  C  C161  1  0.46355000  0.80013000  0.54787000  1
  C  C162  1  0.48952000  0.69275000  0.55611000  1
  C  C163  1  0.52945000  0.65664000  0.62987000  1
  N  N164  1  0.81534000  0.27864000  0.39791000  1
  N  N165  1  0.96027000  0.35028000  0.11104000  1
  N  N166  1  0.94809000  0.39057000  0.03402000  1
  N  N167  1  0.71988000  0.54926000  0.80721000  1
  N  N168  1  0.18491000  0.72483000  0.89512000  1
  N  N169  1  0.03746000  0.65212000  0.60934000  1
  N  N170  1  0.04928000  0.61248000  0.53205000  1
  N  N171  1  0.27914000  0.45041000  0.30613000  1
  N  N172  1  0.77432000  0.68352000  0.64609000  1
  N  N173  1  0.84651000  0.54007000  0.35900000  1
  N  N174  1  0.88629000  0.55217000  0.28184000  1
  N  N175  1  0.05099000  0.77821000  0.05663000  1
  N  N176  1  0.22488000  0.31566000  0.14597000  1
  N  N177  1  0.15302000  0.45938000  0.85927000  1
  N  N178  1  0.11231000  0.44790000  0.78246000  1
  N  N179  1  0.94810000  0.22161000  0.55800000  1
  N  N180  1  0.68613000  0.77534000  0.85410000  1
  N  N181  1  0.54485000  0.84653000  0.14150000  1
  N  N182  1  0.55621000  0.88668000  0.21845000  1
  N  N183  1  0.77911000  0.05260000  0.44374000  1
  N  N184  1  0.31552000  0.22429000  0.35395000  1
  N  N185  1  0.46054000  0.14828000  0.64009000  1
  N  N186  1  0.44825000  0.10784000  0.71700000  1
  N  N187  1  0.22046000  0.95015000  0.94407000  1
  N  N188  1  0.72302000  0.18490000  0.60468000  1
  N  N189  1  0.65143000  0.03757000  0.89091000  1
  N  N190  1  0.61133000  0.04967000  0.96809000  1
  N  N191  1  0.45152000  0.27994000  0.19401000  1
  N  N192  1  0.27827000  0.81446000  0.10325000  1
  N  N193  1  0.35258000  0.95775000  0.38958000  1
  N  N194  1  0.39196000  0.94581000  0.46684000  1
  N  N195  1  0.54884000  0.71917000  0.69550000  1
  O  O196  1  0.79214000  0.40132000  0.09768000  1
  O  O197  1  0.20627000  0.60392000  0.59410000  1
  O  O198  1  0.88897000  0.70940000  0.34319000  1
  O  O199  1  0.10611000  0.29104000  0.84457000  1
  O  O200  1  0.71350000  0.89381000  0.15623000  1
  O  O201  1  0.29069000  0.10616000  0.65573000  1
  O  O202  1  0.60370000  0.20626000  0.90558000  1
  O  O203  1  0.39658000  0.78829000  0.40568000  1
