# generated using pymatgen
data_Cr3H23C31O14
_symmetry_space_group_name_H-M   'P 1'
_cell_length_a   10.93495000
_cell_length_b   11.01424000
_cell_length_c   18.75139000
_cell_angle_alpha   89.36904000
_cell_angle_beta   89.91907000
_cell_angle_gamma   119.59530000
_symmetry_Int_Tables_number   1
_chemical_formula_structural   Cr3H23C31O14
_chemical_formula_sum   'Cr6 H46 C62 O28'
_cell_volume   1963.59662527
_cell_formula_units_Z   2
loop_
 _symmetry_equiv_pos_site_id
 _symmetry_equiv_pos_as_xyz
  1  'x, y, z'
loop_
 _atom_site_type_symbol
 _atom_site_label
 _atom_site_symmetry_multiplicity
 _atom_site_fract_x
 _atom_site_fract_y
 _atom_site_fract_z
 _atom_site_occupancy
  Cr  Cr0  1  0.60208000  0.39296000  0.50224000  1
  Cr  Cr1  1  0.29152000  0.39834000  0.50125000  1
  Cr  Cr2  1  0.60643000  0.70867000  0.49646000  1
  Cr  Cr3  1  0.06146000  0.93765000  0.00761000  1
  Cr  Cr4  1  0.06263000  0.62533000  0.99452000  1
  Cr  Cr5  1  0.37477000  0.93794000  0.00119000  1
  H  H6  1  0.11553000  0.61249000  0.78437000  1
  H  H7  1  0.57873000  0.68603000  0.72248000  1
  H  H8  1  0.50330000  0.88938000  0.79237000  1
  H  H9  1  0.51886000  0.86992000  0.67874000  1
  H  H10  1  0.70225000  0.44001000  0.70454000  1
  H  H11  1  0.72547000  0.46354000  0.83252000  1
  H  H12  1  0.08390000  0.93680000  0.79721000  1
  H  H13  1  0.97174000  0.02317000  0.79512000  1
  H  H14  1  0.95318000  0.99799000  0.66828000  1
  H  H15  1  0.06190000  0.90904000  0.67029000  1
  H  H16  1  0.15806000  0.23092000  0.70285000  1
  H  H17  1  0.14669000  0.47364000  0.81261000  1
  H  H18  1  0.16096000  0.23225000  0.83160000  1
  H  H19  1  0.49981000  0.06219000  0.83362000  1
  H  H20  1  0.66050000  0.23163000  0.82326000  1
  H  H21  1  0.47197000  0.05107000  0.69853000  1
  H  H22  1  0.11639000  0.51739000  0.32415000  1
  H  H23  1  0.09445000  0.52057000  0.19262000  1
  H  H24  1  0.64337000  0.91758000  0.16878000  1
  H  H25  1  0.60047000  0.72965000  0.17087000  1
  H  H26  1  0.62727000  0.74097000  0.29710000  1
  H  H27  1  0.18496000  0.43954000  0.69675000  1
  H  H28  1  0.66437000  0.92753000  0.29468000  1
  H  H29  1  0.04651000  0.90884000  0.20902000  1
  H  H30  1  0.75589000  0.34453000  0.17544000  1
  H  H31  1  0.66515000  0.44898000  0.15852000  1
  H  H32  1  0.59229000  0.41841000  0.28083000  1
  H  H33  1  0.68512000  0.31552000  0.29769000  1
  H  H34  1  0.46591000  0.07698000  0.33499000  1
  H  H35  1  0.45822000  0.04229000  0.20456000  1
  H  H36  1  0.13917000  0.29192000  0.17489000  1
  H  H37  1  0.14993000  0.57432000  0.66908000  1
  H  H38  1  0.33682000  0.39682000  0.17382000  1
  H  H39  1  0.33615000  0.42090000  0.29992000  1
  H  H40  1  0.13777000  0.31561000  0.30135000  1
  H  H41  1  0.32739000  0.86859000  0.77899000  1
  H  H42  1  0.33756000  0.81914000  0.66253000  1
  H  H43  1  0.53820000  0.69886000  0.84039000  1
  H  H44  1  0.39248000  0.52401000  0.84152000  1
  H  H45  1  0.45014000  0.50504000  0.72503000  1
  H  H46  1  0.69550000  0.07584000  0.63512000  1
  H  H47  1  0.72792000  0.08356000  0.73125000  1
  H  H48  1  0.85246000  0.21485000  0.67188000  1
  H  H49  1  0.99692000  0.08091000  0.36989000  1
  H  H50  1  0.82884000  0.93009000  0.36829000  1
  H  H51  1  0.92517000  0.00793000  0.28489000  1
  C  C52  1  0.35698000  0.24389000  0.61200000  1
  C  C53  1  0.43784000  0.62680000  0.81346000  1
  C  C54  1  0.33431000  0.68352000  0.81702000  1
  C  C55  1  0.37506000  0.64493000  0.68385000  1
  C  C56  1  0.40897000  0.79603000  0.69511000  1
  C  C57  1  0.46722000  0.61143000  0.73442000  1
  C  C58  1  0.82814000  0.68785000  0.82838000  1
  C  C59  1  0.86009000  0.80182000  0.78286000  1
  C  C60  1  0.84672000  0.78590000  0.70913000  1
  C  C61  1  0.75094000  0.54100000  0.72570000  1
  C  C62  1  0.75912000  0.55521000  0.79911000  1
  C  C63  1  0.40879000  0.62907000  0.60908000  1
  C  C64  1  0.99020000  0.93875000  0.77564000  1
  C  C65  1  0.97648000  0.92145000  0.69531000  1
  C  C66  1  0.80456000  0.65581000  0.67913000  1
  C  C67  1  0.34508000  0.20756000  0.84051000  1
  C  C68  1  0.46521000  0.23016000  0.80191000  1
  C  C69  1  0.46534000  0.23287000  0.72769000  1
  C  C70  1  0.24582000  0.23103000  0.72921000  1
  C  C71  1  0.24798000  0.23274000  0.80373000  1
  C  C72  1  0.55242000  0.16087000  0.80396000  1
  C  C73  1  0.54219000  0.15256000  0.72259000  1
  C  C74  1  0.76896000  0.62653000  0.60383000  1
  C  C75  1  0.34995000  0.22076000  0.68965000  1
  C  C76  1  0.31493000  0.67199000  0.17450000  1
  C  C77  1  0.43539000  0.76901000  0.20867000  1
  C  C78  1  0.44644000  0.77274000  0.28071000  1
  C  C79  1  0.20600000  0.58949000  0.29206000  1
  C  C80  1  0.19464000  0.58861000  0.21704000  1
  C  C81  1  0.58567000  0.81320000  0.19523000  1
  C  C82  1  0.60028000  0.81905000  0.27544000  1
  C  C83  1  0.33787000  0.67338000  0.32365000  1
  C  C84  1  0.93205000  0.68784000  0.18610000  1
  C  C85  1  0.35020000  0.22124000  0.40193000  1
  C  C86  1  0.86283000  0.55569000  0.21677000  1
  C  C87  1  0.82094000  0.53877000  0.28608000  1
  C  C88  1  0.93737000  0.78812000  0.30283000  1
  C  C89  1  0.98014000  0.80531000  0.23056000  1
  C  C90  1  0.73294000  0.42662000  0.19427000  1
  C  C91  1  0.68691000  0.40749000  0.27166000  1
  C  C92  1  0.84654000  0.65215000  0.32854000  1
  C  C93  1  0.32797000  0.13765000  0.18424000  1
  C  C94  1  0.24588000  0.18479000  0.21582000  1
  C  C95  1  0.24477000  0.19743000  0.28736000  1
  C  C96  1  0.37522000  0.64534000  0.39381000  1
  C  C97  1  0.40238000  0.10506000  0.30188000  1
  C  C98  1  0.40181000  0.09012000  0.22767000  1
  C  C99  1  0.23973000  0.31412000  0.20036000  1
  C  C100  1  0.23885000  0.32939000  0.28025000  1
  C  C101  1  0.32709000  0.16505000  0.33150000  1
  C  C102  1  0.89745000  0.70317000  0.89660000  1
  C  C103  1  0.31493000  0.71893000  0.89051000  1
  C  C104  1  0.29643000  0.12281000  0.90683000  1
  C  C105  1  0.95963000  0.70180000  0.11035000  1
  C  C106  1  0.30666000  0.69872000  0.09938000  1
  C  C107  1  0.77506000  0.61877000  0.39662000  1
  C  C108  1  0.29103000  0.09148000  0.11266000  1
  C  C109  1  0.19289000  0.57453000  0.78253000  1
  C  C110  1  0.21748000  0.55046000  0.70430000  1
  C  C111  1  0.39492000  0.81964000  0.77308000  1
  C  C112  1  0.73836000  0.14512000  0.68183000  1
  C  C113  1  0.93297000  0.98149000  0.34161000  1
  O  O114  1  0.74430000  0.50738000  0.58144000  1
  O  O115  1  0.30419000  0.52448000  0.42404000  1
  O  O116  1  0.49571000  0.73639000  0.41479000  1
  O  O117  1  0.72271000  0.69130000  0.42217000  1
  O  O118  1  0.50001000  0.49999000  0.49998000  1
  O  O119  1  0.17431000  0.08940000  0.93057000  1
  O  O120  1  0.94556000  0.81846000  0.92985000  1
  O  O121  1  0.92285000  0.60606000  0.91551000  1
  O  O122  1  0.19332000  0.64655000  0.91757000  1
  O  O123  1  0.40659000  0.83717000  0.91525000  1
  O  O124  1  0.36447000  0.06520000  0.93157000  1
  O  O125  1  0.47265000  0.28032000  0.57893000  1
  O  O126  1  0.17111000  0.06826000  0.09184000  1
  O  O127  1  0.94259000  0.79887000  0.07934000  1
  O  O128  1  0.91965000  0.58493000  0.07678000  1
  O  O129  1  0.19035000  0.62696000  0.06706000  1
  O  O130  1  0.40339000  0.81604000  0.07651000  1
  O  O131  1  0.36150000  0.04561000  0.08106000  1
  O  O132  1  0.16629000  0.83364000  0.00110000  1
  O  O133  1  0.26041000  0.26051000  0.58459000  1
  O  O134  1  0.30492000  0.53230000  0.57382000  1
  O  O135  1  0.49650000  0.74484000  0.57637000  1
  O  O136  1  0.72344000  0.69912000  0.57196000  1
  O  O137  1  0.74350000  0.49894000  0.41986000  1
  O  O138  1  0.47192000  0.27250000  0.42915000  1
  O  O139  1  0.25962000  0.25206000  0.42301000  1
  O  O140  1  0.67400000  0.22821000  0.68797000  1
  O  O141  1  0.99762000  0.89890000  0.34928000  1
