# generated using pymatgen
data_H14C25N8
_symmetry_space_group_name_H-M   'P 1'
_cell_length_a   38.87500000
_cell_length_b   38.89580000
_cell_length_c   38.89580000
_cell_angle_alpha   89.97430000
_cell_angle_beta   89.97430000
_cell_angle_gamma   89.97430000
_symmetry_Int_Tables_number   1
_chemical_formula_structural   H14C25N8
_chemical_formula_sum   'H168 C300 N96'
_cell_volume   58813.31889648
_cell_formula_units_Z   12
loop_
 _symmetry_equiv_pos_site_id
 _symmetry_equiv_pos_as_xyz
  1  'x, y, z'
loop_
 _atom_site_type_symbol
 _atom_site_label
 _atom_site_symmetry_multiplicity
 _atom_site_fract_x
 _atom_site_fract_y
 _atom_site_fract_z
 _atom_site_occupancy
  H  19  1  0.97659500  0.95778900  0.50251200  1
  H  20  1  0.97585700  0.95458300  0.56382000  1
  H  21  1  0.02365000  0.05532100  0.50777200  1
  H  22  1  0.96162900  0.97716300  0.72908900  1
  H  23  1  0.94287500  0.92202500  0.63717400  1
  H  24  1  0.90844400  0.88178900  0.66885100  1
  H  25  1  0.92730600  0.93712300  0.76003100  1
  H  26  1  0.01203600  0.03932200  0.73059800  1
  H  27  1  0.10750700  0.09900900  0.67684700  1
  H  28  1  0.07270500  0.06137800  0.64296700  1
  H  29  1  0.04679900  0.07696400  0.76400800  1
  H  36  1  0.02329000  0.05234700  0.56895100  1
  H  58  1  0.97856700  0.03982900  0.40710900  1
  H  59  1  0.98010800  0.04364200  0.34588900  1
  H  60  1  0.02489300  0.94186900  0.40256100  1
  H  61  1  0.97218000  0.02454900  0.18001000  1
  H  62  1  0.94794900  0.07595500  0.27284000  1
  H  63  1  0.91318700  0.11588400  0.24122200  1
  H  64  1  0.93751900  0.06433300  0.14908100  1
  H  65  1  0.01867500  0.95904900  0.17990400  1
  H  66  1  0.11448600  0.90008800  0.23388400  1
  H  67  1  0.07928900  0.93759300  0.26767200  1
  H  68  1  0.05375100  0.92153300  0.14663300  1
  H  75  1  0.02679600  0.94544400  0.34141300  1
  H  97  1  0.95757000  0.54727100  0.93182900  1
  H  98  1  0.95443700  0.60858500  0.93110000  1
  H  99  1  0.05515800  0.55240600  0.97886300  1
  H  100  1  0.97632300  0.77414700  0.91829800  1
  H  101  1  0.92278500  0.68183300  0.89694800  1
  H  102  1  0.88258000  0.71361600  0.86256000  1
  H  103  1  0.93630600  0.80518600  0.88405100  1
  H  104  1  0.03929700  0.77524200  0.96748900  1
  H  105  1  0.09873300  0.72146000  0.06306900  1
  H  106  1  0.06117900  0.68758900  0.02816300  1
  H  107  1  0.07685600  0.80863700  0.00235100  1
  H  114  1  0.05225600  0.61358900  0.97851700  1
  H  136  1  0.03957200  0.45181300  0.93375200  1
  H  137  1  0.04338800  0.39059800  0.93527900  1
  H  138  1  0.94160300  0.44725600  0.98014500  1
  H  139  1  0.02458500  0.22468800  0.92762300  1
  H  140  1  0.07554400  0.31764200  0.90286200  1
  H  141  1  0.11552100  0.28604800  0.86812200  1
  H  142  1  0.06442100  0.19378700  0.89298200  1
  H  143  1  0.95890200  0.22458000  0.97387700  1
  H  144  1  0.90013400  0.27840800  0.06985700  1
  H  145  1  0.93750200  0.31227400  0.03458500  1
  H  146  1  0.92152500  0.19123100  0.00902200  1
  H  153  1  0.94518300  0.38610600  0.98203200  1
  H  175  1  0.54701800  0.97662600  0.91309500  1
  H  176  1  0.60835700  0.97591400  0.90991800  1
  H  177  1  0.55221200  0.02371800  0.01059800  1
  H  178  1  0.77375800  0.96198100  0.93238100  1
  H  179  1  0.68168300  0.94261900  0.87764100  1
  H  180  1  0.71338200  0.90817600  0.83744000  1
  H  181  1  0.80472400  0.92764900  0.89236800  1
  H  182  1  0.77517800  0.01216000  0.99465700  1
  H  183  1  0.72143800  0.10771300  0.05416300  1
  H  184  1  0.68752300  0.07287300  0.01659600  1
  H  185  1  0.80861800  0.04695800  0.03223300  1
  H  192  1  0.61343000  0.02338600  0.00765500  1
  H  214  1  0.45157300  0.97850400  0.99510600  1
  H  215  1  0.39032300  0.97999700  0.99895000  1
  H  216  1  0.44694000  0.02484000  0.89716600  1
  H  217  1  0.22429900  0.97239600  0.98036700  1
  H  218  1  0.31738400  0.94752300  0.03109700  1
  H  219  1  0.28582900  0.91277000  0.07108000  1
  H  220  1  0.19343700  0.93773900  0.02020900  1
  H  221  1  0.22412000  0.01863300  0.91468300  1
  H  222  1  0.27805600  0.11438900  0.85565400  1
  H  223  1  0.31194000  0.07912400  0.89299900  1
  H  224  1  0.19074800  0.05377700  0.87733200  1
  H  231  1  0.38575500  0.02669400  0.90077200  1
  H  244  1  0.78820800  0.85339200  0.86377200  1
  H  245  1  0.85362000  0.90865800  0.74408200  1
  H  246  1  0.90761700  0.78730800  0.80821800  1
  H  256  1  0.22728600  0.15426700  0.84338700  1
  H  257  1  0.14697200  0.11110900  0.72756700  1
  H  258  1  0.08540300  0.20699000  0.81903900  1
  H  268  1  0.77208900  0.14712100  0.06645500  1
  H  269  1  0.86416800  0.08530800  0.16158100  1
  H  270  1  0.88807100  0.22741800  0.10970200  1
  H  280  1  0.20665500  0.86377800  0.04102300  1
  H  281  1  0.15437800  0.88815300  0.18277400  1
  H  282  1  0.11099500  0.77203300  0.10250500  1
  H  301  1  0.69363700  0.67498200  0.21970500  1
  H  302  1  0.69289900  0.67177600  0.28101300  1
  H  303  1  0.74069200  0.77251400  0.22496500  1
  H  304  1  0.67867100  0.69435600  0.44628200  1
  H  305  1  0.65991700  0.63921800  0.35436700  1
  H  306  1  0.62548600  0.59898200  0.38604400  1
  H  307  1  0.64434800  0.65431600  0.47722400  1
  H  308  1  0.72907800  0.75651500  0.44779100  1
  H  309  1  0.82454900  0.81620200  0.39404000  1
  H  310  1  0.78974700  0.77857100  0.36016000  1
  H  311  1  0.76384100  0.79415700  0.48120100  1
  H  318  1  0.74033200  0.76954000  0.28614400  1
  H  340  1  0.69560900  0.75702200  0.12430200  1
  H  341  1  0.69715000  0.76083500  0.06308200  1
  H  342  1  0.74193500  0.65906200  0.11975400  1
  H  343  1  0.68922200  0.74174200  0.89720300  1
  H  344  1  0.66499100  0.79314800  0.99003312  1
  H  345  1  0.63022900  0.83307700  0.95841510  1
  H  346  1  0.65456100  0.78152600  0.86627400  1
  H  347  1  0.73571700  0.67624200  0.89709700  1
  H  348  1  0.83152800  0.61728100  0.95107710  1
  H  349  1  0.79633100  0.65478600  0.98486510  1
  H  350  1  0.77079300  0.63872600  0.86382600  1
  H  357  1  0.74383800  0.66263700  0.05860600  1
  H  379  1  0.67461200  0.26446400  0.64902200  1
  H  380  1  0.67147900  0.32577800  0.64829300  1
  H  381  1  0.77220000  0.26959900  0.69605600  1
  H  382  1  0.69336500  0.49134000  0.63549100  1
  H  383  1  0.63982700  0.39902600  0.61414100  1
  H  384  1  0.59962200  0.43080900  0.57975300  1
  H  385  1  0.65334800  0.52237900  0.60124400  1
  H  386  1  0.75633900  0.49243500  0.68468200  1
  H  387  1  0.81577500  0.43865300  0.78026200  1
  H  388  1  0.77822100  0.40478200  0.74535600  1
  H  389  1  0.79389800  0.52583000  0.71954400  1
  H  396  1  0.76929800  0.33078200  0.69571000  1
  H  418  1  0.75661400  0.16900600  0.65094500  1
  H  419  1  0.76043000  0.10779100  0.65247200  1
  H  420  1  0.65864500  0.16444900  0.69733800  1
  H  421  1  0.74162700  0.94188110  0.64481600  1
  H  422  1  0.79258600  0.03483500  0.62005500  1
  H  423  1  0.83256300  0.00324100  0.58531500  1
  H  424  1  0.78146300  0.91098010  0.61017500  1
  H  425  1  0.67594400  0.94177310  0.69107000  1
  H  426  1  0.61717600  0.99560112  0.78705000  1
  H  427  1  0.65454400  0.02946700  0.75177800  1
  H  428  1  0.63856700  0.90842410  0.72621500  1
  H  435  1  0.66222500  0.10329900  0.69922500  1
  H  457  1  0.26406000  0.69381900  0.63028800  1
  H  458  1  0.32539900  0.69310700  0.62711100  1
  H  459  1  0.26925400  0.74091100  0.72779100  1
  H  460  1  0.49080000  0.67917400  0.64957400  1
  H  461  1  0.39872500  0.65981200  0.59483400  1
  H  462  1  0.43042400  0.62536900  0.55463300  1
  H  463  1  0.52176600  0.64484200  0.60956100  1
  H  464  1  0.49222000  0.72935300  0.71185000  1
  H  465  1  0.43848000  0.82490600  0.77135600  1
  H  466  1  0.40456500  0.79006600  0.73378900  1
  H  467  1  0.52566000  0.76415100  0.74942600  1
  H  474  1  0.33047200  0.74057900  0.72484800  1
  H  496  1  0.16861500  0.69569700  0.71229900  1
  H  497  1  0.10736500  0.69719000  0.71614300  1
  H  498  1  0.16398200  0.74203300  0.61435900  1
  H  499  1  0.94134080  0.68958900  0.69756000  1
  H  500  1  0.03442600  0.66471600  0.74829000  1
  H  501  1  0.00287100  0.62996300  0.78827300  1
  H  502  1  0.91047880  0.65493200  0.73740200  1
  H  503  1  0.94116180  0.73582600  0.63187600  1
  H  504  1  0.99509780  0.83158200  0.57284700  1
  H  505  1  0.02898200  0.79631700  0.61019200  1
  H  506  1  0.90778980  0.77097000  0.59452500  1
  H  513  1  0.10279700  0.74388700  0.61796500  1
  H  526  1  0.50525000  0.57058500  0.58096500  1
  H  527  1  0.57066200  0.62585100  0.46127500  1
  H  528  1  0.62465900  0.50450100  0.52541100  1
  H  538  1  0.94432780  0.87146000  0.56058000  1
  H  539  1  0.86401400  0.82830200  0.44476000  1
  H  540  1  0.80244500  0.92418310  0.53623200  1
  H  550  1  0.48913100  0.86431400  0.78364800  1
  H  551  1  0.58121000  0.80250100  0.87877400  1
  H  552  1  0.60511300  0.94461110  0.82689500  1
  H  562  1  0.92369680  0.58097100  0.75821600  1
  H  563  1  0.87142000  0.60534600  0.89996700  1
  H  564  1  0.82803700  0.48922600  0.81969800  1
  C  1  1  0.95577400  0.95394600  0.67972100  1
  C  2  1  0.99969700  0.00303100  0.57286400  1
  C  3  1  0.03884000  0.04623500  0.68326700  1
  C  4  1  0.01356800  0.03194400  0.55551000  1
  C  5  1  0.01364800  0.03391700  0.51940600  1
  C  6  1  0.00054100  0.00672100  0.49944500  1
  C  7  1  0.98667900  0.97771600  0.51639000  1
  C  8  1  0.98609200  0.97603700  0.55254300  1
  C  9  1  0.93950500  0.92594600  0.66296400  1
  C  10  1  0.91926500  0.90218600  0.68143600  1
  C  11  1  0.91410000  0.90638600  0.71704700  1
  C  12  1  0.93008800  0.93408100  0.73402800  1
  C  13  1  0.95052500  0.95748600  0.71563800  1
  C  14  1  0.03213400  0.05145100  0.71870300  1
  C  15  1  0.05247500  0.07380000  0.73848600  1
  C  16  1  0.08066700  0.09107400  0.72369500  1
  C  17  1  0.08753800  0.08633000  0.68835000  1
  C  18  1  0.06678000  0.06435700  0.66842500  1
  C  30  1  0.01823700  0.02331200  0.66351400  1
  C  32  1  0.97722400  0.97755000  0.66159400  1
  C  34  1  0.99910000  0.00150300  0.60946500  1
  C  40  1  0.96364900  0.04591800  0.22983000  1
  C  41  1  0.00381900  0.99503200  0.33718100  1
  C  42  1  0.04543700  0.95241100  0.22727700  1
  C  43  1  0.01677800  0.96580700  0.35472000  1
  C  44  1  0.01551400  0.96348100  0.39079100  1
  C  45  1  0.00193100  0.99061400  0.41055400  1
  C  46  1  0.98897900  0.01992800  0.39341100  1
  C  47  1  0.98973800  0.02196700  0.35728800  1
  C  48  1  0.94594600  0.07293100  0.24679300  1
  C  49  1  0.92554800  0.09655800  0.22833600  1
  C  50  1  0.92178300  0.09331800  0.19245800  1
  C  51  1  0.93950400  0.06682200  0.17521000  1
  C  52  1  0.96004500  0.04350900  0.19362100  1
  C  53  1  0.03880900  0.94703200  0.19186200  1
  C  54  1  0.05931400  0.92472900  0.17217300  1
  C  55  1  0.08761300  0.90768500  0.18702900  1
  C  56  1  0.09438600  0.91254600  0.22237200  1
  C  57  1  0.07341200  0.93443600  0.24223000  1
  C  69  1  0.02476500  0.97545700  0.24683200  1
  C  71  1  0.98446500  0.02190000  0.24817400  1
  C  73  1  0.00446500  0.99693500  0.30059300  1
  C  79  1  0.95391100  0.72456600  0.91115600  1
  C  80  1  0.00292200  0.61756500  0.95493100  1
  C  81  1  0.04613700  0.72789700  0.99428100  1
  C  82  1  0.03182900  0.60017400  0.96879200  1
  C  83  1  0.03375800  0.56406600  0.96886600  1
  C  84  1  0.00652500  0.54414100  0.95576000  1
  C  85  1  0.97752000  0.56112300  0.94191700  1
  C  86  1  0.97588800  0.59727900  0.94132600  1
  C  87  1  0.92637200  0.70773800  0.89416200  1
  C  88  1  0.90264100  0.72626600  0.87393100  1
  C  89  1  0.90637900  0.76203600  0.86958400  1
  C  90  1  0.93358500  0.77909600  0.88630100  1
  C  91  1  0.95700200  0.76062800  0.90665600  1
  C  92  1  0.05138000  0.76333600  0.98760200  1
  C  93  1  0.07368700  0.78310900  0.00799700  1
  C  94  1  0.09088600  0.76831100  0.03621800  1
  C  95  1  0.08611400  0.73296500  0.04307000  1
  C  96  1  0.06419700  0.71304300  0.02224500  1
  C  108  1  0.02324000  0.70816900  0.97362900  1
  C  110  1  0.97750500  0.70635300  0.93256300  1
  C  112  1  0.00142700  0.65416900  0.95436700  1
  C  118  1  0.04572600  0.27456700  0.91882700  1
  C  119  1  0.99477400  0.38188300  0.95901800  1
  C  120  1  0.95226600  0.27192900  0.00066900  1
  C  121  1  0.96554900  0.39941900  0.97200800  1
  C  122  1  0.96321900  0.43548900  0.97075100  1
  C  123  1  0.99035500  0.45525800  0.95715500  1
  C  124  1  0.01967200  0.43811700  0.94417700  1
  C  125  1  0.02171200  0.40199300  0.94492500  1
  C  126  1  0.07262000  0.29157500  0.90097300  1
  C  127  1  0.09628000  0.27313400  0.88059600  1
  C  128  1  0.09318400  0.23722300  0.87700500  1
  C  129  1  0.06680200  0.21993200  0.89485700  1
  C  130  1  0.04345900  0.23833100  0.91537900  1
  C  131  1  0.94690600  0.23651300  0.99402900  1
  C  132  1  0.92469100  0.21677500  0.01458300  1
  C  133  1  0.90770500  0.23158400  0.04293100  1
  C  134  1  0.91254200  0.26693000  0.04971300  1
  C  135  1  0.93433600  0.28683900  0.02868800  1
  C  147  1  0.97526500  0.29151800  0.97997300  1
  C  149  1  0.02168600  0.29289100  0.93963900  1
  C  151  1  0.99668500  0.34529400  0.95965800  1
  C  157  1  0.72430800  0.95582200  0.90936500  1
  C  158  1  0.61737200  0.99977100  0.95835800  1
  C  159  1  0.72782800  0.03897100  0.00153100  1
  C  160  1  0.59999000  0.01365300  0.98725100  1
  C  161  1  0.56386600  0.01371500  0.98920800  1
  C  162  1  0.54391400  0.00058000  0.96201400  1
  C  163  1  0.56088700  0.98671900  0.93302300  1
  C  164  1  0.59706000  0.98614900  0.93136100  1
  C  165  1  0.70750800  0.93935600  0.88150400  1
  C  166  1  0.72599600  0.91912000  0.85775500  1
  C  167  1  0.76166600  0.91415100  0.86183900  1
  C  168  1  0.77868600  0.93031300  0.88940600  1
  C  169  1  0.76027700  0.95074000  0.91280200  1
  C  170  1  0.76327900  0.03226300  0.00676200  1
  C  171  1  0.78308000  0.05262400  0.02907100  1
  C  172  1  0.76829500  0.08084000  0.04629100  1
  C  173  1  0.73293400  0.08772000  0.04153200  1
  C  174  1  0.71298500  0.06692900  0.01960700  1
  C  186  1  0.70806400  0.01834900  0.97863800  1
  C  188  1  0.70616000  0.97728700  0.93293900  1
  C  190  1  0.65399500  0.99918300  0.95684700  1
  C  196  1  0.27424100  0.96354500  0.00138900  1
  C  197  1  0.38156800  0.00369700  0.95034900  1
  C  198  1  0.27153400  0.04532200  0.90791000  1
  C  199  1  0.39908900  0.01666200  0.92111400  1
  C  200  1  0.43518000  0.01543400  0.91877400  1
  C  201  1  0.45497700  0.00186900  0.94589600  1
  C  202  1  0.43785000  0.98889100  0.97520900  1
  C  203  1  0.40171000  0.98963600  0.97727300  1
  C  204  1  0.29129400  0.94566300  0.02822700  1
  C  205  1  0.27287500  0.92528300  0.05189600  1
  C  206  1  0.23694100  0.92170400  0.04886000  1
  C  207  1  0.21960200  0.93960200  0.02254600  1
  C  208  1  0.23797600  0.96013400  0.99919900  1
  C  209  1  0.23607400  0.03873800  0.90263200  1
  C  210  1  0.21632400  0.05929200  0.88043000  1
  C  211  1  0.23116300  0.08757800  0.86336700  1
  C  212  1  0.26655200  0.09429100  0.86811300  1
  C  213  1  0.28646700  0.07328100  0.88991200  1
  C  225  1  0.29114100  0.02463000  0.93089700  1
  C  227  1  0.29255000  0.98434100  0.97733100  1
  C  229  1  0.34496300  0.00433500  0.95228300  1
  C  235  1  0.85417200  0.86384000  0.77200500  1
  C  237  1  0.81644700  0.85419900  0.81917800  1
  C  239  1  0.86357800  0.81643400  0.80943900  1
  C  241  1  0.88632900  0.79211100  0.82168600  1
  C  242  1  0.86658100  0.88689600  0.74807400  1
  C  243  1  0.79238100  0.86652400  0.84215300  1
  C  247  1  0.14208300  0.14051600  0.77117300  1
  C  249  1  0.18269100  0.14916300  0.81554800  1
  C  251  1  0.13200900  0.18294800  0.81381800  1
  C  253  1  0.10885300  0.20491800  0.82923200  1
  C  254  1  0.13030600  0.12092200  0.74429300  1
  C  255  1  0.21037400  0.13757800  0.83401000  1
  C  259  1  0.85862200  0.13209000  0.13801600  1
  C  261  1  0.81578900  0.14225000  0.09575100  1
  C  263  1  0.86011000  0.18293200  0.10448500  1
  C  265  1  0.87841000  0.21073700  0.09294600  1
  C  266  1  0.87420700  0.10883400  0.15974000  1
  C  267  1  0.78893100  0.13048300  0.07610900  1
  C  271  1  0.14908300  0.85998200  0.13842400  1
  C  273  1  0.18271700  0.85843800  0.08764800  1
  C  275  1  0.14032000  0.81573700  0.09771300  1
  C  277  1  0.12063600  0.78893100  0.08592000  1
  C  278  1  0.13758800  0.87826500  0.16626000  1
  C  279  1  0.20463300  0.87392000  0.06448600  1
  C  283  1  0.67281600  0.67113900  0.39691400  1
  C  284  1  0.71673900  0.72022400  0.29005700  1
  C  285  1  0.75588200  0.76342800  0.40046000  1
  C  286  1  0.73061000  0.74913700  0.27270300  1
  C  287  1  0.73069000  0.75111000  0.23659900  1
  C  288  1  0.71758300  0.72391400  0.21663800  1
  C  289  1  0.70372100  0.69490900  0.23358300  1
  C  290  1  0.70313400  0.69323000  0.26973600  1
  C  291  1  0.65654700  0.64313900  0.38015700  1
  C  292  1  0.63630700  0.61937900  0.39862900  1
  C  293  1  0.63114200  0.62357900  0.43424000  1
  C  294  1  0.64713000  0.65127400  0.45122100  1
  C  295  1  0.66756700  0.67467900  0.43283100  1
  C  296  1  0.74917600  0.76864400  0.43589600  1
  C  297  1  0.76951700  0.79099300  0.45567900  1
  C  298  1  0.79770900  0.80826700  0.44088800  1
  C  299  1  0.80458000  0.80352300  0.40554300  1
  C  300  1  0.78382200  0.78155000  0.38561800  1
  C  312  1  0.73527900  0.74050500  0.38070700  1
  C  314  1  0.69426600  0.69474300  0.37878700  1
  C  316  1  0.71614200  0.71869600  0.32665800  1
  C  322  1  0.68069100  0.76311100  0.94702310  1
  C  323  1  0.72086100  0.71222500  0.05437400  1
  C  324  1  0.76247900  0.66960400  0.94447010  1
  C  325  1  0.73382000  0.68300000  0.07191300  1
  C  326  1  0.73255600  0.68067400  0.10798400  1
  C  327  1  0.71897300  0.70780700  0.12774700  1
  C  328  1  0.70602100  0.73712100  0.11060400  1
  C  329  1  0.70678000  0.73916000  0.07448100  1
  C  330  1  0.66298800  0.79012400  0.96398610  1
  C  331  1  0.64259000  0.81375100  0.94552910  1
  C  332  1  0.63882500  0.81051100  0.90965110  1
  C  333  1  0.65654600  0.78401500  0.89240300  1
  C  334  1  0.67708700  0.76070200  0.91081410  1
  C  335  1  0.75585100  0.66422500  0.90905510  1
  C  336  1  0.77635600  0.64192200  0.88936600  1
  C  337  1  0.80465500  0.62487800  0.90422210  1
  C  338  1  0.81142800  0.62973900  0.93956510  1
  C  339  1  0.79045400  0.65162900  0.95942310  1
  C  351  1  0.74180700  0.69265000  0.96402510  1
  C  353  1  0.70150700  0.73909300  0.96536710  1
  C  355  1  0.72150700  0.71412800  0.01778600  1
  C  361  1  0.67095300  0.44175900  0.62834900  1
  C  362  1  0.71996400  0.33475800  0.67212400  1
  C  363  1  0.76317900  0.44509000  0.71147400  1
  C  364  1  0.74887100  0.31736700  0.68598500  1
  C  365  1  0.75080000  0.28125900  0.68605900  1
  C  366  1  0.72356700  0.26133400  0.67295300  1
  C  367  1  0.69456200  0.27831600  0.65911000  1
  C  368  1  0.69293000  0.31447200  0.65851900  1
  C  369  1  0.64341400  0.42493100  0.61135500  1
  C  370  1  0.61968300  0.44345900  0.59112400  1
  C  371  1  0.62342100  0.47922900  0.58677700  1
  C  372  1  0.65062700  0.49628900  0.60349400  1
  C  373  1  0.67404400  0.47782100  0.62384900  1
  C  374  1  0.76842200  0.48052900  0.70479500  1
  C  375  1  0.79072900  0.50030200  0.72519000  1
  C  376  1  0.80792800  0.48550400  0.75341100  1
  C  377  1  0.80315600  0.45015800  0.76026300  1
  C  378  1  0.78123900  0.43023600  0.73943800  1
  C  390  1  0.74028200  0.42536200  0.69082200  1
  C  392  1  0.69454700  0.42354600  0.64975600  1
  C  394  1  0.71846900  0.37136200  0.67156000  1
  C  400  1  0.76276800  0.99176012  0.63602000  1
  C  401  1  0.71181600  0.09907600  0.67621100  1
  C  402  1  0.66930800  0.98912210  0.71786200  1
  C  403  1  0.68259100  0.11661200  0.68920100  1
  C  404  1  0.68026100  0.15268200  0.68794400  1
  C  405  1  0.70739700  0.17245100  0.67434800  1
  C  406  1  0.73671400  0.15531000  0.66137000  1
  C  407  1  0.73875400  0.11918600  0.66211800  1
  C  408  1  0.78966200  0.00876800  0.61816600  1
  C  409  1  0.81332200  0.99032712  0.59778900  1
  C  410  1  0.81022600  0.95441610  0.59419800  1
  C  411  1  0.78384400  0.93712510  0.61205000  1
  C  412  1  0.76050100  0.95552410  0.63257200  1
  C  413  1  0.66394800  0.95370610  0.71122200  1
  C  414  1  0.64173300  0.93396810  0.73177600  1
  C  415  1  0.62474700  0.94877710  0.76012400  1
  C  416  1  0.62958400  0.98412310  0.76690600  1
  C  417  1  0.65137800  0.00403200  0.74588100  1
  C  429  1  0.69230700  0.00871100  0.69716600  1
  C  431  1  0.73872800  0.01008400  0.65683200  1
  C  433  1  0.71372700  0.06248700  0.67685100  1
  C  439  1  0.44135000  0.67301500  0.62655800  1
  C  440  1  0.33441400  0.71696400  0.67555100  1
  C  441  1  0.44487000  0.75616400  0.71872400  1
  C  442  1  0.31703200  0.73084600  0.70444400  1
  C  443  1  0.28090800  0.73090800  0.70640100  1
  C  444  1  0.26095600  0.71777300  0.67920700  1
  C  445  1  0.27792900  0.70391200  0.65021600  1
  C  446  1  0.31410200  0.70334200  0.64855400  1
  C  447  1  0.42455000  0.65654900  0.59869700  1
  C  448  1  0.44303800  0.63631300  0.57494800  1
  C  449  1  0.47870800  0.63134400  0.57903200  1
  C  450  1  0.49572800  0.64750600  0.60659900  1
  C  451  1  0.47731900  0.66793300  0.62999500  1
  C  452  1  0.48032100  0.74945600  0.72395500  1
  C  453  1  0.50012200  0.76981700  0.74626400  1
  C  454  1  0.48533700  0.79803300  0.76348400  1
  C  455  1  0.44997600  0.80491300  0.75872500  1
  C  456  1  0.43002700  0.78412200  0.73680000  1
  C  468  1  0.42510600  0.73554200  0.69583100  1
  C  470  1  0.42320200  0.69448000  0.65013200  1
  C  472  1  0.37103700  0.71637600  0.67404000  1
  C  478  1  0.99128280  0.68073800  0.71858200  1
  C  479  1  0.09861000  0.72089000  0.66754200  1
  C  480  1  0.98857580  0.76251500  0.62510300  1
  C  481  1  0.11613100  0.73385500  0.63830700  1
  C  482  1  0.15222200  0.73262700  0.63596700  1
  C  483  1  0.17201900  0.71906200  0.66308900  1
  C  484  1  0.15489200  0.70608400  0.69240200  1
  C  485  1  0.11875200  0.70682900  0.69446600  1
  C  486  1  0.00833600  0.66285600  0.74542000  1
  C  487  1  0.98991680  0.64247600  0.76908900  1
  C  488  1  0.95398280  0.63889700  0.76605300  1
  C  489  1  0.93664380  0.65679500  0.73973900  1
  C  490  1  0.95501780  0.67732700  0.71639200  1
  C  491  1  0.95311580  0.75593100  0.61982500  1
  C  492  1  0.93336580  0.77648500  0.59762300  1
  C  493  1  0.94820480  0.80477100  0.58056000  1
  C  494  1  0.98359380  0.81148400  0.58530600  1
  C  495  1  0.00350900  0.79047400  0.60710500  1
  C  507  1  0.00818300  0.74182300  0.64809000  1
  C  509  1  0.00959200  0.70153400  0.69452400  1
  C  511  1  0.06200500  0.72152800  0.66947600  1
  C  517  1  0.57121400  0.58103300  0.48919800  1
  C  519  1  0.53348900  0.57139200  0.53637100  1
  C  521  1  0.58062000  0.53362700  0.52663200  1
  C  523  1  0.60337100  0.50930400  0.53887900  1
  C  524  1  0.58362300  0.60408900  0.46526700  1
  C  525  1  0.50942300  0.58371700  0.55934600  1
  C  529  1  0.85912500  0.85770900  0.48836600  1
  C  531  1  0.89973300  0.86635600  0.53274100  1
  C  533  1  0.84905100  0.90014110  0.53101100  1
  C  535  1  0.82589500  0.92211110  0.54642500  1
  C  536  1  0.84734800  0.83811500  0.46148600  1
  C  537  1  0.92741580  0.85477100  0.55120300  1
  C  541  1  0.57566400  0.84928300  0.85520900  1
  C  543  1  0.53283100  0.85944300  0.81294400  1
  C  545  1  0.57715200  0.90012510  0.82167800  1
  C  547  1  0.59545200  0.92793010  0.81013900  1
  C  548  1  0.59124900  0.82602700  0.87693300  1
  C  549  1  0.50597300  0.84767600  0.79330200  1
  C  553  1  0.86612500  0.57717500  0.85561700  1
  C  555  1  0.89975900  0.57563100  0.80484100  1
  C  557  1  0.85736200  0.53293000  0.81490600  1
  C  559  1  0.83767800  0.50612400  0.80311300  1
  C  560  1  0.85463000  0.59545800  0.88345300  1
  C  561  1  0.92167480  0.59111300  0.78167900  1
  N  31  1  0.99725300  0.00018200  0.67909400  1
  N  33  1  0.97873000  0.97874400  0.62665400  1
  N  35  1  0.01857400  0.02339200  0.62859500  1
  N  37  1  0.09865600  0.11150600  0.74417100  1
  N  38  1  0.89703300  0.88350100  0.73559600  1
  N  39  1  0.00126600  0.01020400  0.46560300  1
  N  70  1  0.00459900  0.99912300  0.23096100  1
  N  72  1  0.98493300  0.02019500  0.28311100  1
  N  74  1  0.02415000  0.97493700  0.28175300  1
  N  76  1  0.10591500  0.88760400  0.16646300  1
  N  77  1  0.90305300  0.11544300  0.17450800  1
  N  78  1  0.00140700  0.98688800  0.44438300  1
  N  109  1  0.00012700  0.72379000  0.95266000  1
  N  111  1  0.97869400  0.67140800  0.93400100  1
  N  113  1  0.02330400  0.67325300  0.97390500  1
  N  115  1  0.11123600  0.78880700  0.05427900  1
  N  116  1  0.88355400  0.78069700  0.85258900  1
  N  117  1  0.00996900  0.51029800  0.95648900  1
  N  148  1  0.99893700  0.27566600  0.95979500  1
  N  150  1  0.01995000  0.32782900  0.94011000  1
  N  152  1  0.97471400  0.32643700  0.97936300  1
  N  154  1  0.88774500  0.21095300  0.06129300  1
  N  155  1  0.11532000  0.21926100  0.85830900  1
  N  156  1  0.98662800  0.48908900  0.95662800  1
  N  187  1  0.72365700  0.99734700  0.95554200  1
  N  189  1  0.67120100  0.97878900  0.93412600  1
  N  191  1  0.67312600  0.01868400  0.97871000  1
  N  193  1  0.78880400  0.09885700  0.06666600  1
  N  194  1  0.78023300  0.89711200  0.83896000  1
  N  195  1  0.51005500  0.00128300  0.96548300  1
  N  226  1  0.27529700  0.00447500  0.95458800  1
  N  228  1  0.32750400  0.98480800  0.97556500  1
  N  230  1  0.32607900  0.02401800  0.93032200  1
  N  232  1  0.21051100  0.10595100  0.84343900  1
  N  233  1  0.21900700  0.90297700  0.07098500  1
  N  234  1  0.48882600  0.00137500  0.94216300  1
  N  236  1  0.82668900  0.87306400  0.79154900  1
  N  238  1  0.83585600  0.82657600  0.82824900  1
  N  240  1  0.87286200  0.83600100  0.78200800  1
  N  248  1  0.17204400  0.13208600  0.78698800  1
  N  250  1  0.16217000  0.17396300  0.82914600  1
  N  252  1  0.12204900  0.16543200  0.78529100  1
  N  260  1  0.83007700  0.12213800  0.12050200  1
  N  262  1  0.83151000  0.17228600  0.08744700  1
  N  264  1  0.87384200  0.16232400  0.12913500  1
  N  272  1  0.17383400  0.87365400  0.11788200  1
  N  274  1  0.16516200  0.82994400  0.07764900  1
  N  276  1  0.13198500  0.83144000  0.12774500  1
  N  313  1  0.71429500  0.71737500  0.39628700  1
  N  315  1  0.69577200  0.69593700  0.34384700  1
  N  317  1  0.73561600  0.74058500  0.34578800  1
  N  319  1  0.81569800  0.82869900  0.46136400  1
  N  320  1  0.61407500  0.60069400  0.45278900  1
  N  321  1  0.71830800  0.72739700  0.18279600  1
  N  352  1  0.72164100  0.71631600  0.94815410  1
  N  354  1  0.70197500  0.73738800  0.00030400  1
  N  356  1  0.74119200  0.69213000  0.99894612  1
  N  358  1  0.82295700  0.60479700  0.88365600  1
  N  359  1  0.62009500  0.83263600  0.89170100  1
  N  360  1  0.71844900  0.70408100  0.16157600  1
  N  391  1  0.71716900  0.44098300  0.66985300  1
  N  393  1  0.69573600  0.38860100  0.65119400  1
  N  395  1  0.74034600  0.39044600  0.69109800  1
  N  397  1  0.82827800  0.50600000  0.77147200  1
  N  398  1  0.60059600  0.49789000  0.56978200  1
  N  399  1  0.72701100  0.22749100  0.67368200  1
  N  430  1  0.71597900  0.99285912  0.67698800  1
  N  432  1  0.73699200  0.04502200  0.65730300  1
  N  434  1  0.69175600  0.04363000  0.69655600  1
  N  436  1  0.60478700  0.92814610  0.77848600  1
  N  437  1  0.83236200  0.93645410  0.57550200  1
  N  438  1  0.70367000  0.20628200  0.67382100  1
  N  469  1  0.44069900  0.71454000  0.67273500  1
  N  471  1  0.38824300  0.69598200  0.65131900  1
  N  473  1  0.39016800  0.73587700  0.69590300  1
  N  475  1  0.50584600  0.81605000  0.78385900  1
  N  476  1  0.49727500  0.61430500  0.55615300  1
  N  477  1  0.22709700  0.71847600  0.68267600  1
  N  508  1  0.99233880  0.72166800  0.67178100  1
  N  510  1  0.04454600  0.70200100  0.69275800  1
  N  512  1  0.04312100  0.74121100  0.64751500  1
  N  514  1  0.92755280  0.82314400  0.56063200  1
  N  515  1  0.93604880  0.62017000  0.78817800  1
  N  516  1  0.20586800  0.71856800  0.65935600  1
  N  518  1  0.54373100  0.59025700  0.50874200  1
  N  520  1  0.55289800  0.54376900  0.54544200  1
  N  522  1  0.58990400  0.55319400  0.49920100  1
  N  530  1  0.88908600  0.84927900  0.50418100  1
  N  532  1  0.87921200  0.89115600  0.54633900  1
  N  534  1  0.83909100  0.88262500  0.50248400  1
  N  542  1  0.54711900  0.83933100  0.83769500  1
  N  544  1  0.54855200  0.88947900  0.80464000  1
  N  546  1  0.59088400  0.87951700  0.84632800  1
  N  554  1  0.89087600  0.59084700  0.83507500  1
  N  556  1  0.88220400  0.54713700  0.79484200  1
  N  558  1  0.84902700  0.54863300  0.84493800  1
