# generated using pymatgen
data_H14C16N3
_symmetry_space_group_name_H-M   'P 1'
_cell_length_a   9.94710000
_cell_length_b   33.11020000
_cell_length_c   41.45840000
_cell_angle_alpha   89.68240000
_cell_angle_beta   89.18540000
_cell_angle_gamma   89.36200000
_symmetry_Int_Tables_number   1
_chemical_formula_structural   H14C16N3
_chemical_formula_sum   'H140 C160 N30'
_cell_volume   13651.91912697
_cell_formula_units_Z   10
loop_
 _symmetry_equiv_pos_site_id
 _symmetry_equiv_pos_as_xyz
  1  'x, y, z'
loop_
 _atom_site_type_symbol
 _atom_site_label
 _atom_site_symmetry_multiplicity
 _atom_site_fract_x
 _atom_site_fract_y
 _atom_site_fract_z
 _atom_site_occupancy
  C  1  1  0.06175100  0.94495100  0.97201833  1
  C  2  1  0.04029900  0.91906600  0.99908700  1
  C  3  1  0.03145000  0.87637167  0.99727300  1
  C  4  1  0.03588100  0.85795133  0.96626300  1
  C  5  1  0.05433500  0.88262533  0.93825000  1
  C  6  1  0.07553500  0.92450967  0.94198600  1
  C  9  1  0.06199300  0.98848000  0.97482800  1
  C  10  1  0.07551700  0.00881300  0.00478500  1
  C  11  1  0.05481800  0.05085900  0.00864000  1
  C  12  1  0.03742800  0.07567300  0.98072600  1
  C  13  1  0.03286300  0.05728400  0.94974900  1
  C  14  1  0.04120800  0.01452300  0.94788200  1
  C  27  1  0.96004800  0.20970500  0.66864567  1
  C  28  1  0.97197200  0.20780000  0.70292300  1
  C  29  1  0.94603300  0.17197100  0.72082200  1
  C  30  1  0.90092600  0.13675200  0.70502900  1
  C  31  1  0.89358700  0.13744700  0.67098600  1
  C  32  1  0.91895400  0.17328367  0.65377867  1
  C  35  1  0.98516000  0.24534000  0.64948700  1
  C  36  1  0.98152500  0.28505800  0.66240400  1
  C  37  1  0.98718700  0.32018700  0.64271200  1
  C  38  1  0.01320500  0.31615767  0.60884433  1
  C  39  1  0.01723900  0.27704900  0.59497600  1
  C  40  1  0.00741400  0.24308400  0.61553833  1
  C  53  1  0.95953700  0.72527500  0.27920200  1
  C  54  1  0.97108800  0.72699200  0.24482900  1
  C  55  1  0.94555400  0.76297533  0.22704700  1
  C  56  1  0.90126800  0.79860533  0.24311000  1
  C  57  1  0.89434000  0.79807700  0.27720700  1
  C  58  1  0.91916100  0.76207467  0.29429200  1
  C  61  1  0.98433000  0.68948900  0.29824033  1
  C  62  1  0.98041400  0.64977000  0.28536900  1
  C  63  1  0.98623200  0.61460067  0.30502200  1
  C  64  1  0.01249200  0.61850600  0.33868800  1
  C  65  1  0.01605700  0.65757633  0.35251900  1
  C  66  1  0.00644000  0.69162033  0.33205100  1
  C  79  1  0.87636200  0.72195100  0.66807000  1
  C  80  1  0.92113600  0.73015667  0.69980100  1
  C  81  1  0.85925900  0.76046200  0.71924867  1
  C  82  1  0.74523800  0.78233400  0.70780367  1
  C  83  1  0.70132300  0.77475600  0.67605800  1
  C  84  1  0.76724800  0.74576767  0.65669600  1
  C  87  1  0.92842500  0.68994200  0.64835300  1
  C  88  1  0.95833900  0.65124900  0.66149600  1
  C  89  1  0.97613500  0.61729100  0.64122500  1
  C  90  1  0.98135500  0.62182600  0.60706133  1
  C  91  1  0.95729800  0.66059900  0.59329300  1
  C  92  1  0.93039700  0.69354400  0.61416433  1
  C  105  1  0.87691000  0.21355000  0.27952600  1
  C  106  1  0.92068800  0.20534000  0.24738367  1
  C  107  1  0.85733800  0.17586300  0.22822700  1
  C  108  1  0.74240200  0.15512700  0.24037900  1
  C  109  1  0.69941800  0.16275800  0.27253300  1
  C  110  1  0.76705100  0.19077100  0.29160500  1
  C  113  1  0.93086500  0.24464200  0.29912000  1
  C  114  1  0.95947000  0.28350200  0.28634200  1
  C  115  1  0.97984500  0.31675100  0.30697600  1
  C  116  1  0.98869900  0.31111433  0.34096600  1
  C  117  1  0.96520600  0.27214400  0.35429733  1
  C  118  1  0.93585600  0.24003800  0.33317333  1
  C  131  1  0.00909800  0.15618200  0.80898300  1
  C  132  1  0.01395100  0.17095500  0.84071100  1
  C  133  1  0.01733800  0.14502500  0.86814400  1
  C  134  1  0.01903200  0.10193100  0.86424200  1
  C  135  1  0.01855100  0.08670500  0.83183700  1
  C  137  1  0.01382400  0.11387233  0.80539800  1
  C  139  1  0.01921400  0.16494633  0.90020100  1
  C  143  1  0.02256100  0.04265800  0.82374000  1
  C  147  1  0.00046500  0.18267700  0.78205400  1
  C  149  1  0.02300400  0.07376200  0.89052200  1
  C  151  1  0.00737300  0.77792633  0.13835200  1
  C  152  1  0.01121400  0.76303400  0.10661033  1
  C  153  1  0.01476300  0.78886333  0.07910533  1
  C  154  1  0.01758900  0.83194600  0.08292133  1
  C  155  1  0.01811100  0.84725467  0.11530200  1
  C  157  1  0.01331200  0.82019667  0.14182000  1
  C  159  1  0.01552800  0.76886400  0.04706300  1
  C  163  1  0.02337000  0.89128200  0.12329700  1
  C  167  1  0.99856600  0.75159700  0.16540700  1
  C  169  1  0.02173200  0.86001800  0.05656700  1
  C  171  1  0.00022600  0.78731900  0.79952200  1
  C  172  1  0.11673500  0.79808400  0.81633500  1
  C  173  1  0.11088900  0.81883700  0.84625500  1
  C  174  1  0.98297900  0.82679800  0.86136700  1
  C  175  1  0.86392600  0.81587000  0.84464600  1
  C  177  1  0.87514600  0.79727500  0.81406367  1
  C  179  1  0.24064000  0.82817000  0.86207800  1
  C  183  1  0.72361800  0.82546700  0.85584500  1
  C  187  1  0.00833900  0.76770533  0.76923000  1
  C  189  1  0.97284800  0.84008500  0.89381800  1
  C  191  1  0.99910500  0.14755900  0.14729300  1
  C  192  1  0.11575100  0.13521000  0.13009400  1
  C  193  1  0.11011400  0.11425600  0.10031700  1
  C  194  1  0.98249100  0.10769200  0.08575900  1
  C  195  1  0.86330000  0.12020700  0.10288200  1
  C  197  1  0.87417100  0.13900700  0.13328567  1
  C  199  1  0.24006300  0.10323700  0.08404000  1
  C  203  1  0.72296500  0.11208000  0.09236400  1
  C  207  1  0.00692200  0.16737200  0.17743433  1
  C  209  1  0.97294400  0.09412300  0.05345333  1
  C  211  1  0.99810900  0.24160300  0.43820000  1
  C  212  1  0.94560100  0.27374600  0.45684433  1
  C  213  1  0.96152100  0.27565000  0.49074067  1
  C  214  1  0.03049100  0.24348567  0.50726100  1
  C  215  1  0.08387200  0.21065400  0.48829200  1
  C  217  1  0.06823100  0.21071000  0.45437067  1
  C  219  1  0.89590400  0.31063967  0.50745500  1
  C  223  1  0.15996600  0.17576700  0.50245033  1
  C  227  1  0.97704100  0.23718600  0.40483200  1
  C  229  1  0.04222400  0.24199500  0.54151600  1
  C  231  1  0.99181100  0.69029633  0.50957000  1
  C  232  1  0.93605700  0.65972133  0.49053800  1
  C  233  1  0.95295500  0.65855600  0.45654467  1
  C  234  1  0.02637200  0.68997067  0.44032700  1
  C  235  1  0.08271500  0.72128900  0.45965200  1
  C  237  1  0.06631100  0.72039600  0.49367000  1
  C  239  1  0.88303000  0.62539200  0.43948700  1
  C  243  1  0.16323300  0.75520933  0.44571967  1
  C  247  1  0.97082300  0.69352867  0.54326400  1
  C  249  1  0.03968500  0.69213300  0.40605200  1
  C  251  1  0.90534500  0.04075433  0.63192300  1
  C  252  1  0.00360800  0.01516300  0.61768100  1
  C  253  1  0.96935500  0.97875933  0.60230933  1
  C  254  1  0.83143700  0.96767967  0.60129433  1
  C  255  1  0.73017500  0.99292400  0.61553900  1
  C  257  1  0.76942900  0.02903000  0.63063233  1
  C  259  1  0.07929600  0.95319033  0.58801600  1
  C  263  1  0.58327000  0.98405267  0.61612500  1
  C  267  1  0.94477600  0.07515000  0.64819400  1
  C  269  1  0.79844700  0.93387900  0.58734067  1
  C  271  1  0.90870900  0.89472200  0.31605533  1
  C  272  1  0.00761000  0.91936700  0.32970000  1
  C  273  1  0.97434700  0.95609200  0.34527900  1
  C  274  1  0.83678600  0.96848433  0.34713433  1
  C  275  1  0.73489100  0.94420733  0.33351367  1
  C  277  1  0.77316900  0.90773600  0.31817500  1
  C  279  1  0.08492800  0.98060600  0.35890600  1
  C  283  1  0.58829200  0.95447600  0.33382300  1
  C  287  1  0.94720400  0.85993200  0.29957567  1
  C  289  1  0.80471200  0.00259200  0.36129300  1
  C  291  1  0.90411400  0.42938433  0.65680800  1
  C  292  1  0.83670600  0.46012667  0.63963100  1
  C  293  1  0.84232700  0.50115333  0.64848600  1
  C  294  1  0.92789300  0.51310067  0.67423167  1
  C  295  1  0.98782000  0.48189000  0.69362600  1
  C  297  1  0.97475700  0.44077900  0.68447333  1
  C  299  1  0.74559500  0.52850800  0.63140900  1
  C  303  1  0.07486700  0.48861500  0.72209500  1
  C  307  1  0.90272000  0.38972700  0.64443867  1
  C  309  1  0.95466500  0.55478900  0.67883200  1
  C  311  1  0.90388300  0.50581500  0.29208100  1
  C  312  1  0.83886700  0.47552333  0.31024300  1
  C  313  1  0.84608700  0.43432000  0.30181000  1
  C  314  1  0.92977300  0.42176633  0.27515900  1
  C  315  1  0.98715200  0.45251567  0.25485700  1
  C  317  1  0.97325200  0.49379633  0.26380267  1
  C  319  1  0.75268200  0.40734100  0.32031700  1
  C  323  1  0.07319900  0.44510100  0.22564200  1
  C  327  1  0.90181600  0.54564367  0.30413667  1
  C  329  1  0.95699600  0.37992567  0.27040200  1
  H  7  1  0.02470000  0.93163000  0.02106100  1
  H  16  1  0.02559700  0.00207900  0.92600500  1
  H  17  1  0.06646600  0.12987100  0.00288333  1
  H  18  1  0.03009200  0.13419100  0.96475900  1
  H  19  1  0.06379300  0.80351433  0.94392700  1
  H  20  1  0.02672500  0.79948700  0.98227200  1
  H  21  1  0.09500600  0.94058200  0.92141200  1
  H  22  1  0.09438300  0.99260000  0.02525300  1
  H  33  1  0.00769500  0.23197400  0.71521500  1
  H  42  1  0.01967600  0.21569100  0.60497033  1
  H  43  1  0.07880500  0.37339200  0.60039400  1
  H  44  1  0.08230300  0.34510667  0.56826300  1
  H  45  1  0.82313100  0.08004600  0.71095000  1
  H  46  1  0.84888400  0.10360400  0.74495500  1
  H  47  1  0.89962900  0.17232900  0.62970400  1
  H  48  1  0.95777600  0.28894500  0.68626300  1
  H  59  1  0.00624200  0.70249867  0.23231200  1
  H  68  1  0.01846400  0.71890100  0.34261867  1
  H  69  1  0.07827000  0.56075500  0.34685400  1
  H  70  1  0.08154400  0.58904833  0.37889700  1
  H  71  1  0.82535000  0.85610300  0.23763200  1
  H  72  1  0.85026000  0.83227000  0.20348900  1
  H  73  1  0.90044800  0.76329900  0.31851433  1
  H  74  1  0.95656900  0.64601500  0.26168267  1
  H  85  1  0.00175800  0.71448600  0.70872200  1
  H  94  1  0.90956900  0.72097633  0.60382000  1
  H  95  1  0.02988600  0.56284400  0.59655867  1
  H  96  1  0.01417100  0.59167100  0.56438167  1
  H  97  1  0.60384600  0.82619833  0.71827700  1
  H  98  1  0.70870700  0.81724900  0.74790867  1
  H  99  1  0.72638500  0.73975900  0.63470400  1
  H  100  1  0.94480600  0.64637300  0.68571367  1
  H  111  1  0.00185500  0.22027600  0.23797600  1
  H  120  1  0.91677300  0.21236100  0.34321500  1
  H  121  1  0.03968100  0.36931433  0.35197800  1
  H  122  1  0.02613200  0.33964567  0.38378133  1
  H  123  1  0.59871900  0.11298200  0.23064700  1
  H  124  1  0.70341800  0.12120100  0.20026100  1
  H  125  1  0.72746000  0.19680500  0.31405400  1
  H  126  1  0.94419300  0.28916800  0.26237200  1
  H  136  1  0.01147500  0.20163100  0.84384000  1
  H  138  1  0.01872200  0.10236800  0.78261833  1
  H  140  1  0.01723400  0.19790300  0.89884400  1
  H  141  1  0.11097500  0.15622700  0.91266267  1
  H  142  1  0.93104600  0.15591000  0.91429700  1
  H  144  1  0.11440900  0.02883500  0.83303200  1
  H  145  1  0.02096800  0.03660100  0.79787500  1
  H  146  1  0.93541900  0.02770800  0.83449700  1
  H  148  1  0.00774200  0.21324400  0.78477733  1
  H  150  1  0.02719300  0.04399900  0.88494400  1
  H  156  1  0.00791700  0.73237567  0.10355600  1
  H  158  1  0.01901200  0.83170900  0.16453700  1
  H  160  1  0.01262300  0.73593333  0.04848700  1
  H  161  1  0.10731000  0.77671133  0.03387800  1
  H  162  1  0.92742200  0.77868533  0.03362800  1
  H  164  1  0.11534800  0.90426800  0.11325200  1
  H  165  1  0.02246200  0.89741133  0.14916267  1
  H  166  1  0.93638900  0.90697767  0.11321233  1
  H  168  1  0.00512200  0.72096300  0.16268100  1
  H  170  1  0.02663400  0.88974767  0.06208267  1
  H  176  1  0.20848000  0.79147900  0.80600800  1
  H  178  1  0.78877900  0.78936400  0.80262500  1
  H  180  1  0.32858500  0.81805500  0.84813500  1
  H  181  1  0.24506200  0.81340600  0.88565000  1
  H  182  1  0.24909100  0.86074100  0.86512467  1
  H  184  1  0.71806000  0.84629567  0.87605200  1
  H  185  1  0.67325500  0.79758800  0.86288700  1
  H  186  1  0.66704200  0.83976200  0.83638900  1
  H  188  1  0.09815500  0.75661500  0.76059500  1
  H  190  1  0.89266100  0.83056700  0.90744300  1
  H  196  1  0.20736400  0.14081400  0.14001733  1
  H  198  1  0.78775800  0.14805600  0.14502900  1
  H  200  1  0.32790100  0.11243000  0.09758000  1
  H  201  1  0.24648800  0.11773200  0.06036767  1
  H  202  1  0.24677400  0.07054900  0.08114900  1
  H  204  1  0.71713300  0.09094900  0.07242633  1
  H  205  1  0.67457600  0.14042100  0.08520167  1
  H  206  1  0.66464700  0.09881700  0.11220600  1
  H  208  1  0.09717800  0.17706800  0.18579467  1
  H  210  1  0.89356500  0.10431000  0.04015633  1
  H  216  1  0.89253000  0.29606900  0.44529867  1
  H  218  1  0.10552400  0.18694200  0.44110300  1
  H  220  1  0.83965300  0.33054200  0.49130400  1
  H  221  1  0.97239000  0.32898433  0.51861400  1
  H  222  1  0.82496600  0.29991000  0.52581533  1
  H  224  1  0.24531700  0.18680800  0.51597700  1
  H  225  1  0.19987300  0.15474600  0.48440300  1
  H  226  1  0.09414600  0.15860600  0.51859400  1
  H  228  1  0.88399300  0.24901800  0.39490600  1
  H  230  1  0.07163400  0.21551800  0.55195000  1
  H  236  1  0.88033300  0.63791200  0.50191200  1
  H  238  1  0.10618200  0.74300200  0.50724000  1
  H  240  1  0.82287500  0.60626100  0.45551500  1
  H  241  1  0.95715300  0.60579100  0.42772500  1
  H  242  1  0.81486200  0.63802800  0.42157500  1
  H  244  1  0.24764500  0.74310433  0.43155800  1
  H  245  1  0.20491200  0.77500800  0.46394800  1
  H  246  1  0.09997900  0.77391567  0.43021900  1
  H  248  1  0.87389700  0.68374800  0.55143700  1
  H  250  1  0.07084000  0.71846600  0.39576633  1
  H  256  1  0.10274400  0.02313400  0.61868100  1
  H  258  1  0.69699400  0.04686367  0.64138400  1
  H  260  1  0.17892900  0.96609233  0.59095100  1
  H  261  1  0.06296300  0.94952900  0.56222333  1
  H  262  1  0.07957900  0.92347600  0.59955200  1
  H  264  1  0.55827600  0.95591633  0.60420500  1
  H  265  1  0.52844000  0.00842400  0.60405800  1
  H  266  1  0.54725900  0.98195500  0.64107567  1
  H  268  1  0.03879000  0.07631800  0.65621100  1
  H  270  1  0.77534600  0.91005000  0.57751800  1
  H  276  1  0.10648600  0.91044400  0.32810767  1
  H  278  1  0.70029400  0.89058500  0.30787967  1
  H  280  1  0.18417300  0.96675667  0.35536300  1
  H  281  1  0.06840600  0.98441867  0.38479800  1
  H  282  1  0.08630400  0.01031400  0.34736900  1
  H  284  1  0.56406000  0.98284533  0.34589600  1
  H  285  1  0.53254800  0.93062900  0.34622733  1
  H  286  1  0.55264800  0.95691933  0.30909000  1
  H  288  1  0.04119300  0.85788500  0.29093700  1
  H  290  1  0.78226100  0.02663300  0.37125900  1
  H  296  1  0.77949300  0.45239767  0.62025100  1
  H  298  1  0.02388300  0.41871600  0.69730067  1
  H  300  1  0.64831900  0.51394367  0.62878933  1
  H  301  1  0.78481700  0.53577567  0.60739600  1
  H  302  1  0.72481600  0.55641367  0.64445200  1
  H  304  1  0.08411100  0.51994400  0.72919867  1
  H  305  1  0.17614900  0.47705767  0.71696300  1
  H  306  1  0.03394900  0.47229233  0.74292000  1
  H  308  1  0.85619700  0.38580867  0.62278633  1
  H  310  1  0.98756900  0.56617000  0.70001900  1
  H  316  1  0.78304300  0.48369600  0.33021700  1
  H  318  1  0.02063100  0.51553133  0.25026700  1
  H  320  1  0.65658000  0.42254800  0.32528767  1
  H  321  1  0.79741300  0.39891567  0.34328800  1
  H  322  1  0.72824500  0.38010100  0.30708300  1
  H  324  1  0.08498600  0.41358500  0.21901900  1
  H  325  1  0.17374200  0.45690300  0.22954100  1
  H  326  1  0.02968500  0.46080633  0.20497300  1
  H  328  1  0.85576900  0.55001200  0.32614267  1
  H  330  1  0.98501500  0.36828500  0.24861700  1
  N  8  1  0.03528600  0.81689700  0.96362200  1
  N  15  1  0.03780900  0.11673000  0.98337400  1
  N  23  1  0.02495000  0.08122600  0.92272500  1
  N  24  1  0.04613400  0.06366600  0.03989400  1
  N  25  1  0.04609600  0.86992900  0.90703400  1
  N  26  1  0.02330200  0.85249533  0.02435733  1
  N  34  1  0.86134000  0.10312400  0.72175400  1
  N  41  1  0.05104200  0.34852700  0.59036000  1
  N  49  1  0.02420600  0.27322900  0.56220567  1
  N  50  1  0.95942500  0.35612467  0.65763800  1
  N  51  1  0.86341300  0.10473400  0.65426900  1
  N  52  1  0.96845300  0.16819300  0.75282700  1
  N  60  1  0.86195300  0.83249633  0.22663400  1
  N  67  1  0.05115800  0.58598133  0.35690800  1
  N  75  1  0.02209000  0.66128267  0.38523500  1
  N  76  1  0.95829900  0.57879700  0.29036700  1
  N  77  1  0.86501200  0.83109400  0.29407500  1
  N  78  1  0.96742400  0.76645000  0.19485600  1
  N  86  1  0.68096700  0.81100400  0.72616567  1
  N  93  1  0.00624200  0.58916800  0.58769000  1
  N  101  1  0.93800700  0.66260000  0.56078300  1
  N  102  1  0.96311000  0.57916200  0.65269300  1
  N  103  1  0.60235300  0.79320300  0.66414000  1
  N  104  1  0.90479300  0.77109600  0.74863900  1
  N  112  1  0.67652200  0.12739100  0.22229500  1
  N  119  1  0.01622100  0.34294300  0.36063233  1
  N  127  1  0.95471400  0.26865000  0.38708000  1
  N  128  1  0.96703700  0.35531400  0.29634100  1
  N  129  1  0.59993400  0.14520300  0.28509867  1
  N  130  1  0.90251600  0.16488300  0.19850600  1
