# generated using pymatgen
data_H36C55(N3O2)4
_symmetry_space_group_name_H-M   'P 1'
_cell_length_a   10.01046667
_cell_length_b   21.66560000
_cell_length_c   21.76800000
_cell_angle_alpha   89.99770000
_cell_angle_beta   90.00000000
_cell_angle_gamma   90.00000000
_symmetry_Int_Tables_number   1
_chemical_formula_structural   H36C55(N3O2)4
_chemical_formula_sum   'H36 C55 N12 O8'
_cell_volume   4721.10405984
_cell_formula_units_Z   1
loop_
 _symmetry_equiv_pos_site_id
 _symmetry_equiv_pos_as_xyz
  1  'x, y, z'
loop_
 _atom_site_type_symbol
 _atom_site_label
 _atom_site_symmetry_multiplicity
 _atom_site_fract_x
 _atom_site_fract_y
 _atom_site_fract_z
 _atom_site_occupancy
  C  1  1  0.12707950  0.00152800  0.05902550  1
  C  2  1  0.26878700  0.00156400  0.05767650  1
  C  3  1  0.26795600  0.00516400  0.94176950  1
  C  4  1  0.12613500  0.00624000  0.94091950  1
  C  5  1  0.06097700  0.00998800  0.88285000  1
  C  6  1  0.13311300  0.01214400  0.82703700  1
  C  7  1  0.27400600  0.01085100  0.82958900  1
  C  8  1  0.34035600  0.00715400  0.88612650  1
  C  9  1  0.34178000  0.00066800  0.11312750  1
  C  10  1  0.27609400  0.00022900  0.16994950  1
  C  11  1  0.13492200  0.00015200  0.17343150  1
  C  12  1  0.06283100  0.00042800  0.11739950  1
  C  13  1  0.96251600  0.06121600  0.00261700  1
  C  14  1  0.82074600  0.05895400  0.00248850  1
  C  15  1  0.82644400  0.94289500  0.99745650  1
  C  16  1  0.96822500  0.94349000  0.99771050  1
  C  17  1  0.75713000  0.88625800  0.99469200  1
  C  18  1  0.82683200  0.83028300  0.99205150  1
  C  19  1  0.96814100  0.82917700  0.99252150  1
  C  20  1  0.03663900  0.88609500  0.99521050  1
  C  21  1  0.02547600  0.11984400  0.00580750  1
  C  22  1  0.95112800  0.17507400  0.00879350  1
  C  23  1  0.81022900  0.17144200  0.00881900  1
  C  24  1  0.74598200  0.11411800  0.00543350  1
  C  37  1  0.04615900  0.00317500  0.00007100  1
  C  38  1  0.74605300  0.00012500  0.99974350  1
  C  41  1  0.34556200  0.00259800  0.99958350  1
  C  44  1  0.03942100  0.77433400  0.98867950  1
  C  45  1  0.06801500  0.00064600  0.22978700  1
  C  46  1  0.01592500  0.23113400  0.01383300  1
  C  50  1  0.06902000  0.02012400  0.77117850  1
  C  52  1  0.00628500  0.66314300  0.00347050  1
  C  53  1  0.12907700  0.63366900  0.98971450  1
  C  54  1  0.13323800  0.56844000  0.98816350  1
  C  55  1  0.01811300  0.53277600  0.00004550  1
  C  56  1  0.89584600  0.56212100  0.01593750  1
  C  57  1  0.89265500  0.62721500  0.01706650  1
  C  59  1  0.02657450  0.46792200  0.99388300  1
  C  60  1  0.07777700  0.43086400  0.04190400  1
  C  61  1  0.06427500  0.36613800  0.03755050  1
  C  62  1  0.99978700  0.33824600  0.98684550  1
  C  63  1  0.95048400  0.37544000  0.93817050  1
  C  64  1  0.96646700  0.44007600  0.94217050  1
  C  82  1  0.10634600  0.99736800  0.34068650  1
  C  83  1  0.21617600  0.98991900  0.38086950  1
  C  84  1  0.19444800  0.99100300  0.44495250  1
  C  85  1  0.06564800  0.99984900  0.46999750  1
  C  86  1  0.95457400  0.00723200  0.42987050  1
  C  87  1  0.97714100  0.00573600  0.36557000  1
  C  89  1  0.05528900  0.00153200  0.53519050  1
  C  90  1  0.10250900  0.05300000  0.56899300  1
  C  91  1  0.10969700  0.04902200  0.63373200  1
  C  92  1  0.07242850  0.99473700  0.66526800  1
  C  93  1  0.02498600  0.94306500  0.63163400  1
  C  94  1  0.01534600  0.94766400  0.56687450  1
  H  25  1  0.75278000  0.21042000  0.01195500  1
  H  26  1  0.64373500  0.11293600  0.00576200  1
  H  27  1  0.65485300  0.88535700  0.99416400  1
  H  28  1  0.77256600  0.79034000  0.98926400  1
  H  29  1  0.13897800  0.88598100  0.99530350  1
  H  30  1  0.12772800  0.12214200  0.00606700  1
  H  31  1  0.95876600  0.01135800  0.88132200  1
  H  32  1  0.33007200  0.01379400  0.79033550  1
  H  33  1  0.44264900  0.00686800  0.88639200  1
  H  34  1  0.96057400  0.00043300  0.11886950  1
  H  35  1  0.44407400  0.00083000  0.11257150  1
  H  36  1  0.33355400  0.00019400  0.20882750  1
  H  39  1  0.68167000  0.99763600  0.04029100  1
  H  40  1  0.68247000  0.00129600  0.95887250  1
  H  42  1  0.40804100  0.96117400  0.99824950  1
  H  43  1  0.41113700  0.04299000  0.00069350  1
  H  47  1  0.09981200  0.23405800  0.03814650  1
  H  48  1  0.13253900  0.77473100  0.97312500  1
  H  49  1  0.96902900  0.00392800  0.23070200  1
  H  51  1  0.00145500  0.05355400  0.76693200  1
  H  58  1  0.80425200  0.64893600  0.02718450  1
  H  65  1  0.09431500  0.33969500  0.07393350  1
  H  66  1  0.92707300  0.46753400  0.90835750  1
  H  67  1  0.22113200  0.54697100  0.97695550  1
  H  70  1  0.70013000  0.55204600  0.04109450  1
  H  71  1  0.77974700  0.48581600  0.03165450  1
  H  73  1  0.85252700  0.37758000  0.85575900  1
  H  74  1  0.87350400  0.30708400  0.88370500  1
  H  88  1  0.89814400  0.01166800  0.33637300  1
  H  95  1  0.15000100  0.08514800  0.65775200  1
  H  96  1  0.98546300  0.90987600  0.54211700  1
  H  97  1  0.27489500  0.98561200  0.47358400  1
  H  100  1  0.75351400  0.02200200  0.42282550  1
  H  101  1  0.80836600  0.01885900  0.49458000  1
  H  103  1  0.95826000  0.85408700  0.63628200  1
  H  104  1  0.99493200  0.88464200  0.70410850  1
  N  68  1  0.13472200  0.45921200  0.09436200  1
  N  69  1  0.78212400  0.53058800  0.03001950  1
  N  72  1  0.88572700  0.35131200  0.88868000  1
  N  75  1  0.24468700  0.66902400  0.97747200  1
  N  80  1  0.98276000  0.72312700  0.00237450  1
  N  81  1  0.96632300  0.27916400  0.98802800  1
  N  98  1  0.14631900  0.10642600  0.53732250  1
  N  99  1  0.82822100  0.01660600  0.45095150  1
  N  102  1  0.99114200  0.88921200  0.65970550  1
  N  105  1  0.34608100  0.98178500  0.35621000  1
  N  110  1  0.13230850  0.99749400  0.28080500  1
  N  111  1  0.10750000  0.98939800  0.72385950  1
  O  76  1  0.25387600  0.44259000  0.10178400  1
  O  77  1  0.33587200  0.65788100  0.01558250  1
  O  78  1  0.06992900  0.44669000  0.14221250  1
  O  79  1  0.28864100  0.65915900  0.92429050  1
  O  106  1  0.26810600  0.11680200  0.54684950  1
  O  107  1  0.42357900  0.02428200  0.37277100  1
  O  108  1  0.08033800  0.15318000  0.55295450  1
  O  109  1  0.39553400  0.93092300  0.37211600  1
