# generated using pymatgen
data_CaHC3SO4
_symmetry_space_group_name_H-M   'P 1'
_cell_length_a   12.45961000
_cell_length_b   13.43819000
_cell_length_c   17.94742000
_cell_angle_alpha   89.56029000
_cell_angle_beta   89.99638000
_cell_angle_gamma   90.00736000
_symmetry_Int_Tables_number   1
_chemical_formula_structural   CaHC3SO4
_chemical_formula_sum   'Ca16 H16 C48 S16 O64'
_cell_volume   3004.93068282
_cell_formula_units_Z   16
loop_
 _symmetry_equiv_pos_site_id
 _symmetry_equiv_pos_as_xyz
  1  'x, y, z'
loop_
 _atom_site_type_symbol
 _atom_site_label
 _atom_site_symmetry_multiplicity
 _atom_site_fract_x
 _atom_site_fract_y
 _atom_site_fract_z
 _atom_site_occupancy
  Ca  Ca1  1  0.55366000  0.58976000  0.55289000  1.0
  Ca  Ca2  1  0.35586000  0.75699000  0.62359000  1.0
  Ca  Ca3  1  0.94820000  0.90938000  0.05347000  1.0
  Ca  Ca4  1  0.14345000  0.74062000  0.12637000  1.0
  Ca  Ca5  1  0.55369000  0.41027000  0.94713000  1.0
  Ca  Ca6  1  0.35586000  0.24303000  0.87642000  1.0
  Ca  Ca7  1  0.94819000  0.09060000  0.44655000  1.0
  Ca  Ca8  1  0.14348000  0.25940000  0.37364000  1.0
  Ca  Ca9  1  0.44634000  0.41024000  0.44711000  1.0
  Ca  Ca10  1  0.64413000  0.24301000  0.37641000  1.0
  Ca  Ca11  1  0.05180000  0.09062000  0.94653000  1.0
  Ca  Ca12  1  0.85654000  0.25938000  0.87363000  1.0
  Ca  Ca13  1  0.44631000  0.58973000  0.05288000  1.0
  Ca  Ca14  1  0.64414000  0.75697000  0.12358000  1.0
  Ca  Ca15  1  0.05181000  0.90940000  0.55345000  1.0
  Ca  Ca16  1  0.85652000  0.74060000  0.62636000  1.0
  H  H1  1  0.28480000  0.76193000  0.31844000  1.0
  H  H2  1  0.61969000  0.55881000  0.29331000  1.0
  H  H3  1  0.21730000  0.73985000  0.82009000  1.0
  H  H4  1  0.88072000  0.94067000  0.79425000  1.0
  H  H5  1  0.28481000  0.23807000  0.18157000  1.0
  H  H6  1  0.61962000  0.44118000  0.20666000  1.0
  H  H7  1  0.21729000  0.26016000  0.67990000  1.0
  H  H8  1  0.88072000  0.05933000  0.70575000  1.0
  H  H9  1  0.71520000  0.23807000  0.68156000  1.0
  H  H10  1  0.38031000  0.44119000  0.70669000  1.0
  H  H11  1  0.78270000  0.26015000  0.17991000  1.0
  H  H12  1  0.11928000  0.05932000  0.20575000  1.0
  H  H13  1  0.71519000  0.76193000  0.81843000  1.0
  H  H14  1  0.38037000  0.55882000  0.79334000  1.0
  H  H15  1  0.78271000  0.73984000  0.32010000  1.0
  H  H16  1  0.11928000  0.94067000  0.29425000  1.0
  C  C1  1  0.39649000  0.66193000  0.37218000  1.0
  C  C2  1  0.35752000  0.71781000  0.31247000  1.0
  C  C3  1  0.41274000  0.71362000  0.24490000  1.0
  C  C4  1  0.50278000  0.64940000  0.23497000  1.0
  C  C5  1  0.54768000  0.60385000  0.29833000  1.0
  C  C6  1  0.49584000  0.60863000  0.36794000  1.0
  C  C7  1  0.10555000  0.83929000  0.87335000  1.0
  C  C8  1  0.14457000  0.78403000  0.81402000  1.0
  C  C9  1  0.08885000  0.78798000  0.74659000  1.0
  C  C10  1  0.99767000  0.85102000  0.73610000  1.0
  C  C11  1  0.95335000  0.89641000  0.79921000  1.0
  C  C12  1  0.00579000  0.89182000  0.86869000  1.0
  C  C13  1  0.39651000  0.33808000  0.12783000  1.0
  C  C14  1  0.35751000  0.28219000  0.18752000  1.0
  C  C15  1  0.41266000  0.28636000  0.25511000  1.0
  C  C16  1  0.50273000  0.35052000  0.26502000  1.0
  C  C17  1  0.54760000  0.39618000  0.20169000  1.0
  C  C18  1  0.49584000  0.39138000  0.13209000  1.0
  C  C19  1  0.10556000  0.16072000  0.62664000  1.0
  C  C20  1  0.14456000  0.21598000  0.68598000  1.0
  C  C21  1  0.08886000  0.21204000  0.75342000  1.0
  C  C22  1  0.99768000  0.14899000  0.76390000  1.0
  C  C23  1  0.95336000  0.10360000  0.70079000  1.0
  C  C24  1  0.00580000  0.10819000  0.63130000  1.0
  C  C25  1  0.60351000  0.33807000  0.62782000  1.0
  C  C26  1  0.64248000  0.28219000  0.68754000  1.0
  C  C27  1  0.58726000  0.28637000  0.75510000  1.0
  C  C28  1  0.49722000  0.35059000  0.76503000  1.0
  C  C29  1  0.45232000  0.39615000  0.70167000  1.0
  C  C30  1  0.50416000  0.39137000  0.63206000  1.0
  C  C31  1  0.89445000  0.16070000  0.12666000  1.0
  C  C32  1  0.85543000  0.21597000  0.18598000  1.0
  C  C33  1  0.91114000  0.21202000  0.25341000  1.0
  C  C34  1  0.00233000  0.14898000  0.26390000  1.0
  C  C35  1  0.04665000  0.10359000  0.20079000  1.0
  C  C36  1  0.99421000  0.10818000  0.13131000  1.0
  C  C37  1  0.60349000  0.66192000  0.87217000  1.0
  C  C38  1  0.64248000  0.71781000  0.81248000  1.0
  C  C39  1  0.58733000  0.71364000  0.74489000  1.0
  C  C40  1  0.49726000  0.64948000  0.73498000  1.0
  C  C41  1  0.45240000  0.60382000  0.79831000  1.0
  C  C42  1  0.50416000  0.60862000  0.86791000  1.0
  C  C43  1  0.89444000  0.83928000  0.37336000  1.0
  C  C44  1  0.85543000  0.78402000  0.31402000  1.0
  C  C45  1  0.91114000  0.78795000  0.24658000  1.0
  C  C46  1  0.00232000  0.85101000  0.23610000  1.0
  C  C47  1  0.04664000  0.89640000  0.29921000  1.0
  C  C48  1  0.99420000  0.89181000  0.36870000  1.0
  S  S1  1  0.31635000  0.64138000  0.45097000  1.0
  S  S2  1  0.37194000  0.77974000  0.16614000  1.0
  S  S3  1  0.18447000  0.85835000  0.95285000  1.0
  S  S4  1  0.12793000  0.71958000  0.66945000  1.0
  S  S5  1  0.31632000  0.35858000  0.04905000  1.0
  S  S6  1  0.37196000  0.22030000  0.33390000  1.0
  S  S7  1  0.18446000  0.14164000  0.54711000  1.0
  S  S8  1  0.12794000  0.28043000  0.83056000  1.0
  S  S9  1  0.68365000  0.35862000  0.54903000  1.0
  S  S10  1  0.62806000  0.22026000  0.83386000  1.0
  S  S11  1  0.81553000  0.14164000  0.04715000  1.0
  S  S12  1  0.87206000  0.28041000  0.33055000  1.0
  S  S13  1  0.68368000  0.64142000  0.95095000  1.0
  S  S14  1  0.62804000  0.77970000  0.66610000  1.0
  S  S15  1  0.81554000  0.85836000  0.45289000  1.0
  S  S16  1  0.87206000  0.71957000  0.16944000  1.0
  O  O1  1  0.38623000  0.67621000  0.51683000  1.0
  O  O2  1  0.30267000  0.53111000  0.45574000  1.0
  O  O3  1  0.21737000  0.69828000  0.44494000  1.0
  O  O4  1  0.27990000  0.84360000  0.18581000  1.0
  O  O5  1  0.46618000  0.83220000  0.13372000  1.0
  O  O6  1  0.32846000  0.70188000  0.11124000  1.0
  O  O7  1  0.53383000  0.56015000  0.42711000  1.0
  O  O8  1  0.54053000  0.63556000  0.16632000  1.0
  O  O9  1  0.11451000  0.81981000  0.01794000  1.0
  O  O10  1  0.19558000  0.96863000  0.95903000  1.0
  O  O11  1  0.28449000  0.80298000  0.94709000  1.0
  O  O12  1  0.22086000  0.65656000  0.68954000  1.0
  O  O13  1  0.03207000  0.66654000  0.64063000  1.0
  O  O14  1  0.16947000  0.79477000  0.61100000  1.0
  O  O15  1  0.96787000  0.93960000  0.92764000  1.0
  O  O16  1  0.95822000  0.86402000  0.66757000  1.0
  O  O17  1  0.38619000  0.32377000  0.98319000  1.0
  O  O18  1  0.30256000  0.46886000  0.04426000  1.0
  O  O19  1  0.21740000  0.30159000  0.05504000  1.0
  O  O20  1  0.27996000  0.15639000  0.31423000  1.0
  O  O21  1  0.46619000  0.16782000  0.36628000  1.0
  O  O22  1  0.32841000  0.29818000  0.38876000  1.0
  O  O23  1  0.53377000  0.43981000  0.07287000  1.0
  O  O24  1  0.54051000  0.36448000  0.33365000  1.0
  O  O25  1  0.11447000  0.18017000  0.48205000  1.0
  O  O26  1  0.19559000  0.03137000  0.54097000  1.0
  O  O27  1  0.28450000  0.19705000  0.55278000  1.0
  O  O28  1  0.22086000  0.34346000  0.81045000  1.0
  O  O29  1  0.03206000  0.33346000  0.85937000  1.0
  O  O30  1  0.16946000  0.20525000  0.88900000  1.0
  O  O31  1  0.96789000  0.06039000  0.57236000  1.0
  O  O32  1  0.95824000  0.13598000  0.83244000  1.0
  O  O33  1  0.61377000  0.32379000  0.48317000  1.0
  O  O34  1  0.69732000  0.46889000  0.54426000  1.0
  O  O35  1  0.78263000  0.30172000  0.55506000  1.0
  O  O36  1  0.72010000  0.15640000  0.81419000  1.0
  O  O37  1  0.53382000  0.16780000  0.86628000  1.0
  O  O38  1  0.67154000  0.29812000  0.88876000  1.0
  O  O39  1  0.46617000  0.43985000  0.57289000  1.0
  O  O40  1  0.45947000  0.36443000  0.83369000  1.0
  O  O41  1  0.88549000  0.18019000  0.98206000  1.0
  O  O42  1  0.80442000  0.03137000  0.04097000  1.0
  O  O43  1  0.71551000  0.19701000  0.05291000  1.0
  O  O44  1  0.77914000  0.34344000  0.31046000  1.0
  O  O45  1  0.96793000  0.33346000  0.35937000  1.0
  O  O46  1  0.83053000  0.20523000  0.38900000  1.0
  O  O47  1  0.03213000  0.06039000  0.07236000  1.0
  O  O48  1  0.04178000  0.13598000  0.33243000  1.0
  O  O49  1  0.61381000  0.67623000  0.01681000  1.0
  O  O50  1  0.69743000  0.53114000  0.95574000  1.0
  O  O51  1  0.78260000  0.69841000  0.94496000  1.0
  O  O52  1  0.72005000  0.84361000  0.68577000  1.0
  O  O53  1  0.53381000  0.83218000  0.63373000  1.0
  O  O54  1  0.67159000  0.70182000  0.61124000  1.0
  O  O55  1  0.46623000  0.56019000  0.92713000  1.0
  O  O56  1  0.45949000  0.63552000  0.66635000  1.0
  O  O57  1  0.88553000  0.81983000  0.51795000  1.0
  O  O58  1  0.80441000  0.96863000  0.45903000  1.0
  O  O59  1  0.71550000  0.80295000  0.44723000  1.0
  O  O60  1  0.77914000  0.65654000  0.18955000  1.0
  O  O61  1  0.96794000  0.66654000  0.14063000  1.0
  O  O62  1  0.83054000  0.79475000  0.11100000  1.0
  O  O63  1  0.03211000  0.93961000  0.42764000  1.0
  O  O64  1  0.04176000  0.86402000  0.16756000  1.0
