# generated using pymatgen
data_AgH6C10N6O
_symmetry_space_group_name_H-M   'P 1'
_cell_length_a   10.78937000
_cell_length_b   10.78937000
_cell_length_c   14.22384000
_cell_angle_alpha   90.00000000
_cell_angle_beta   90.00000000
_cell_angle_gamma   89.99820000
_symmetry_Int_Tables_number   1
_chemical_formula_structural   AgH6C10N6O
_chemical_formula_sum   'Ag4 H24 C40 N24 O4'
_cell_volume   1655.80439658
_cell_formula_units_Z   4
loop_
 _symmetry_equiv_pos_site_id
 _symmetry_equiv_pos_as_xyz
  1  'x, y, z'
loop_
 _atom_site_type_symbol
 _atom_site_label
 _atom_site_symmetry_multiplicity
 _atom_site_fract_x
 _atom_site_fract_y
 _atom_site_fract_z
 _atom_site_occupancy
  Ag  Ag0  1  0.50000000  0.50000000  0.81565000  1
  Ag  Ag1  1  0.50000000  0.50000000  0.18435000  1
  Ag  Ag2  1  0.00000000  0.00000000  0.31560000  1
  Ag  Ag3  1  0.00000000  0.00000000  0.68440000  1
  H  H4  1  0.63584000  0.63584000  0.37059000  1
  H  H5  1  0.68082000  0.68082000  0.08302000  1
  H  H6  1  0.84462000  0.84462000  0.11236000  1
  H  H7  1  0.36416000  0.36416000  0.37059000  1
  H  H8  1  0.31918000  0.31918000  0.08302000  1
  H  H9  1  0.15539000  0.15538000  0.11236000  1
  H  H10  1  0.36416000  0.36416000  0.62941000  1
  H  H11  1  0.31918000  0.31918000  0.91698000  1
  H  H12  1  0.15539000  0.15538000  0.88764000  1
  H  H13  1  0.63584000  0.63584000  0.62941000  1
  H  H14  1  0.68082000  0.68082000  0.91698000  1
  H  H15  1  0.84462000  0.84462000  0.88764000  1
  H  H16  1  0.86401000  0.13599000  0.87068000  1
  H  H17  1  0.81906000  0.18094000  0.58301000  1
  H  H18  1  0.65528000  0.34472000  0.61239000  1
  H  H19  1  0.13599000  0.86401000  0.87068000  1
  H  H20  1  0.18094000  0.81906000  0.58301000  1
  H  H21  1  0.34472000  0.65528000  0.61239000  1
  H  H22  1  0.13599000  0.86401000  0.12932000  1
  H  H23  1  0.18094000  0.81906000  0.41699000  1
  H  H24  1  0.34472000  0.65528000  0.38761000  1
  H  H25  1  0.86401000  0.13599000  0.12932000  1
  H  H26  1  0.81906000  0.18094000  0.41699000  1
  H  H27  1  0.65528000  0.34472000  0.38761000  1
  C  C28  1  0.80725000  0.80725000  0.42361000  1
  C  C29  1  0.77370000  0.77370000  0.33006000  1
  C  C30  1  0.68235000  0.68235000  0.31254000  1
  C  C31  1  0.70827000  0.70827000  0.15352000  1
  C  C32  1  0.79825000  0.79825000  0.17079000  1
  C  C33  1  0.19275000  0.19275000  0.42361000  1
  C  C34  1  0.22630000  0.22630000  0.33006000  1
  C  C35  1  0.31765000  0.31765000  0.31254000  1
  C  C36  1  0.29173000  0.29173000  0.15352000  1
  C  C37  1  0.20175000  0.20175000  0.17079000  1
  C  C38  1  0.19275000  0.19275000  0.57638000  1
  C  C39  1  0.22630000  0.22630000  0.66994000  1
  C  C40  1  0.31765000  0.31765000  0.68746000  1
  C  C41  1  0.29173000  0.29173000  0.84648000  1
  C  C42  1  0.20175000  0.20175000  0.82921000  1
  C  C43  1  0.80725000  0.80725000  0.57638000  1
  C  C44  1  0.77370000  0.77370000  0.66994000  1
  C  C45  1  0.68235000  0.68235000  0.68746000  1
  C  C46  1  0.70827000  0.70827000  0.84648000  1
  C  C47  1  0.79825000  0.79825000  0.82921000  1
  C  C48  1  0.69264000  0.30736000  0.92360000  1
  C  C49  1  0.72625000  0.27375000  0.83004000  1
  C  C50  1  0.81761000  0.18239000  0.81252000  1
  C  C51  1  0.79167000  0.20833000  0.65353000  1
  C  C52  1  0.70168000  0.29832000  0.67079000  1
  C  C53  1  0.30736000  0.69264000  0.92360000  1
  C  C54  1  0.27375000  0.72625000  0.83004000  1
  C  C55  1  0.18239000  0.81761000  0.81252000  1
  C  C56  1  0.20833000  0.79167000  0.65353000  1
  C  C57  1  0.29832000  0.70168000  0.67079000  1
  C  C58  1  0.30736000  0.69264000  0.07640000  1
  C  C59  1  0.27375000  0.72625000  0.16996000  1
  C  C60  1  0.18239000  0.81761000  0.18748000  1
  C  C61  1  0.20833000  0.79167000  0.34647000  1
  C  C62  1  0.29832000  0.70168000  0.32921000  1
  C  C63  1  0.69264000  0.30736000  0.07640000  1
  C  C64  1  0.72625000  0.27375000  0.16996000  1
  C  C65  1  0.81761000  0.18239000  0.18748000  1
  C  C66  1  0.79167000  0.20833000  0.34647000  1
  C  C67  1  0.70168000  0.29832000  0.32921000  1
  N  N68  1  0.89023000  0.89023000  0.45202000  1
  N  N69  1  0.64972000  0.64972000  0.22577000  1
  N  N70  1  0.83280000  0.83280000  0.25714000  1
  N  N71  1  0.10977000  0.10977000  0.45202000  1
  N  N72  1  0.35028000  0.35028000  0.22577000  1
  N  N73  1  0.16720000  0.16720000  0.25714000  1
  N  N74  1  0.10977000  0.10977000  0.54798000  1
  N  N75  1  0.35028000  0.35028000  0.77423000  1
  N  N76  1  0.16720000  0.16720000  0.74286000  1
  N  N77  1  0.89023000  0.89023000  0.54798000  1
  N  N78  1  0.64972000  0.64972000  0.77423000  1
  N  N79  1  0.83280000  0.83280000  0.74286000  1
  N  N80  1  0.60966000  0.39034000  0.95202000  1
  N  N81  1  0.85027000  0.14973000  0.72575000  1
  N  N82  1  0.66714000  0.33286000  0.75713000  1
  N  N83  1  0.39035000  0.60965000  0.95202000  1
  N  N84  1  0.14973000  0.85027000  0.72575000  1
  N  N85  1  0.33287000  0.66713000  0.75713000  1
  N  N86  1  0.39035000  0.60965000  0.04798000  1
  N  N87  1  0.14973000  0.85027000  0.27425000  1
  N  N88  1  0.33287000  0.66713000  0.24287000  1
  N  N89  1  0.60966000  0.39034000  0.04798000  1
  N  N90  1  0.85027000  0.14973000  0.27425000  1
  N  N91  1  0.66714000  0.33286000  0.24287000  1
  O  O92  1  0.75009000  0.75009000  0.50000000  1
  O  O93  1  0.24991000  0.24991000  0.50000000  1
  O  O94  1  0.74981000  0.25019000  0.00000000  1
  O  O95  1  0.25020000  0.74980000  0.00000000  1
