# generated using pymatgen
data_Cd12H92C139N120
_symmetry_space_group_name_H-M   'P 1'
_cell_length_a   20.58146000
_cell_length_b   27.02487000
_cell_length_c   27.02493000
_cell_angle_alpha   79.68287000
_cell_angle_beta   89.99955000
_cell_angle_gamma   89.99955000
_symmetry_Int_Tables_number   1
_chemical_formula_structural   Cd12H92C139N120
_chemical_formula_sum   'Cd24 H184 C278 N240'
_cell_volume   14788.53352638
_cell_formula_units_Z   2
loop_
 _symmetry_equiv_pos_site_id
 _symmetry_equiv_pos_as_xyz
  1  'x, y, z'
loop_
 _atom_site_type_symbol
 _atom_site_label
 _atom_site_symmetry_multiplicity
 _atom_site_fract_x
 _atom_site_fract_y
 _atom_site_fract_z
 _atom_site_occupancy
  Cd  Cd0  1  0.38691000  0.54142000  0.54142000  1
  Cd  Cd1  1  0.31795000  0.21773000  0.21772000  1
  Cd  Cd2  1  0.04380000  0.41909000  0.91411000  1
  Cd  Cd3  1  0.54377000  0.58090000  0.08588000  1
  Cd  Cd4  1  0.36222000  0.12012000  0.12012000  1
  Cd  Cd5  1  0.68214000  0.33460000  0.83117000  1
  Cd  Cd6  1  0.04380000  0.91412000  0.41909000  1
  Cd  Cd7  1  0.41018000  0.02238000  0.02237000  1
  Cd  Cd8  1  0.86262000  0.86445000  0.38063000  1
  Cd  Cd9  1  0.54377000  0.08588000  0.58090000  1
  Cd  Cd10  1  0.81793000  0.78228000  0.78228000  1
  Cd  Cd11  1  0.86262000  0.38064000  0.86445000  1
  Cd  Cd12  1  0.87076000  0.35947000  0.35947000  1
  Cd  Cd13  1  0.68214000  0.83117000  0.33460000  1
  Cd  Cd14  1  0.88688000  0.45858000  0.45858000  1
  Cd  Cd15  1  0.36262000  0.61937000  0.13555000  1
  Cd  Cd16  1  0.37078000  0.64053000  0.64053000  1
  Cd  Cd17  1  0.31591000  0.73572000  0.73572000  1
  Cd  Cd18  1  0.81593000  0.26428000  0.26428000  1
  Cd  Cd19  1  0.18218000  0.66540000  0.16884000  1
  Cd  Cd20  1  0.91015000  0.97763000  0.97763000  1
  Cd  Cd21  1  0.18218000  0.16884000  0.66539000  1
  Cd  Cd22  1  0.36262000  0.13555000  0.61936000  1
  Cd  Cd23  1  0.86227000  0.87988000  0.87988000  1
  H  H24  1  0.07765000  0.53244000  0.88519000  1
  H  H25  1  0.08629000  0.07682000  0.07682000  1
  H  H26  1  0.05633000  0.55237000  0.04903000  1
  H  H27  1  0.14858000  0.77877000  0.13252000  1
  H  H28  1  0.65761000  0.09564000  0.67435000  1
  H  H29  1  0.42254000  0.34103000  0.55541000  1
  H  H30  1  0.23033000  0.96000000  0.26480000  1
  H  H31  1  0.63748000  0.71917000  0.37243000  1
  H  H32  1  0.97352000  0.93087000  0.08503000  1
  H  H33  1  0.06568000  0.56920000  0.33875000  1
  H  H34  1  0.18041000  0.95413000  0.44574000  1
  H  H35  1  0.50277000  0.50200000  0.00514000  1
  H  H36  1  0.78450000  0.85132000  0.58179000  1
  H  H37  1  0.63748000  0.37243000  0.71917000  1
  H  H38  1  0.47695000  0.70609000  0.89816000  1
  H  H39  1  0.98613000  0.75017000  0.25416000  1
  H  H40  1  0.72460000  0.74928000  0.26115000  1
  H  H41  1  0.56805000  0.92500000  0.33932000  1
  H  H42  1  0.94419000  0.56566000  0.46621000  1
  H  H43  1  0.25277000  0.84133000  0.68769000  1
  H  H44  1  0.64812000  0.40323000  0.16632000  1
  H  H45  1  0.92254000  0.44460000  0.65896000  1
  H  H46  1  0.48612000  0.74585000  0.24982000  1
  H  H47  1  0.93928000  0.25763000  0.18889000  1
  H  H48  1  0.57871000  0.62306000  0.97332000  1
  H  H49  1  0.74125000  0.50270000  0.99283000  1
  H  H50  1  0.25038000  0.85717000  0.04869000  1
  H  H51  1  0.16195000  0.82544000  0.41705000  1
  H  H52  1  0.68040000  0.04587000  0.55425000  1
  H  H53  1  0.28657000  0.01551000  0.94533000  1
  H  H54  1  0.75037000  0.14282000  0.95132000  1
  H  H55  1  0.75037000  0.95132000  0.14282000  1
  H  H56  1  0.94419000  0.46622000  0.56565000  1
  H  H57  1  0.73034000  0.73520000  0.04001000  1
  H  H58  1  0.47990000  0.19962000  0.38035000  1
  H  H59  1  0.50128000  0.49183000  0.78980000  1
  H  H60  1  0.57871000  0.97332000  0.62306000  1
  H  H61  1  0.14784000  0.08682000  0.31911000  1
  H  H62  1  0.57765000  0.11482000  0.46754000  1
  H  H63  1  0.07869000  0.37694000  0.02667000  1
  H  H64  1  0.66193000  0.17457000  0.58295000  1
  H  H65  1  0.97695000  0.10184000  0.29391000  1
  H  H66  1  0.07765000  0.88520000  0.53244000  1
  H  H67  1  0.97695000  0.29391000  0.10184000  1
  H  H68  1  0.47695000  0.89816000  0.70609000  1
  H  H69  1  0.05633000  0.04903000  0.55237000  1
  H  H70  1  0.76154000  0.53220000  0.41689000  1
  H  H71  1  0.50128000  0.78981000  0.49183000  1
  H  H72  1  0.57765000  0.46754000  0.11482000  1
  H  H73  1  0.25591000  0.32685000  0.17426000  1
  H  H74  1  0.23652000  0.77070000  0.47732000  1
  H  H75  1  0.26155000  0.46781000  0.58311000  1
  H  H76  1  0.43929000  0.81110000  0.74237000  1
  H  H77  1  0.94238000  0.77385000  0.70858000  1
  H  H78  1  0.06804000  0.66067000  0.07500000  1
  H  H79  1  0.28450000  0.41820000  0.14869000  1
  H  H80  1  0.97990000  0.80039000  0.61965000  1
  H  H81  1  0.44419000  0.53379000  0.43434000  1
  H  H82  1  0.55429000  0.25789000  0.25789000  1
  H  H83  1  0.14811000  0.59677000  0.83369000  1
  H  H84  1  0.99484000  0.71912000  0.01716000  1
  H  H85  1  0.23652000  0.47733000  0.77070000  1
  H  H86  1  0.73428000  0.39015000  0.62325000  1
  H  H87  1  0.13748000  0.62757000  0.28083000  1
  H  H88  1  0.44549000  0.82527000  0.10357000  1
  H  H89  1  0.16996000  0.19931000  0.19931000  1
  H  H90  1  0.23428000  0.37675000  0.60986000  1
  H  H91  1  0.54577000  0.30027000  0.80076000  1
  H  H92  1  0.94547000  0.89643000  0.17474000  1
  H  H93  1  0.15759000  0.32564000  0.90436000  1
  H  H94  1  0.25219000  0.29027000  0.29027000  1
  H  H95  1  0.06568000  0.33875000  0.56919000  1
  H  H96  1  0.17119000  0.98181000  0.98181000  1
  H  H97  1  0.66193000  0.58295000  0.17457000  1
  H  H98  1  0.64786000  0.91319000  0.68089000  1
  H  H99  1  0.57467000  0.42954000  0.84310000  1
  H  H100  1  0.73034000  0.04001000  0.73520000  1
  H  H101  1  0.67119000  0.01819000  0.01819000  1
  H  H102  1  0.07956000  0.84158000  0.07760000  1
  H  H103  1  0.50277000  0.00514000  0.50200000  1
  H  H104  1  0.25591000  0.17426000  0.32685000  1
  H  H105  1  0.07956000  0.07760000  0.84158000  1
  H  H106  1  0.16195000  0.41705000  0.82544000  1
  H  H107  1  0.49484000  0.28088000  0.98284000  1
  H  H108  1  0.47651000  0.94997000  0.94997000  1
  H  H109  1  0.75219000  0.70973000  0.70973000  1
  H  H110  1  0.64234000  0.16357000  0.16356000  1
  H  H111  1  0.68040000  0.55425000  0.04587000  1
  H  H112  1  0.78450000  0.58179000  0.85132000  1
  H  H113  1  0.98613000  0.25416000  0.75017000  1
  H  H114  1  0.17227000  0.30723000  0.79174000  1
  H  H115  1  0.75276000  0.15866000  0.31230000  1
  H  H116  1  0.14234000  0.83644000  0.83643000  1
  H  H117  1  0.24127000  0.00717000  0.49729000  1
  H  H118  1  0.64858000  0.86748000  0.22122000  1
  H  H119  1  0.75276000  0.31231000  0.15866000  1
  H  H120  1  0.00128000  0.21020000  0.50816000  1
  H  H121  1  0.06804000  0.07501000  0.66067000  1
  H  H122  1  0.14260000  0.31710000  0.31710000  1
  H  H123  1  0.75104000  0.19125000  0.19125000  1
  H  H124  1  0.64260000  0.68290000  0.68290000  1
  H  H125  1  0.22460000  0.25071000  0.73885000  1
  H  H126  1  0.73652000  0.52267000  0.22931000  1
  H  H127  1  0.73652000  0.22931000  0.52267000  1
  H  H128  1  0.42254000  0.55541000  0.34103000  1
  H  H129  1  0.76154000  0.41689000  0.53219000  1
  H  H130  1  0.23033000  0.26480000  0.96000000  1
  H  H131  1  0.66996000  0.80069000  0.80069000  1
  H  H132  1  0.73428000  0.62325000  0.39014000  1
  H  H133  1  0.22460000  0.73886000  0.25071000  1
  H  H134  1  0.00278000  0.49800000  0.99486000  1
  H  H135  1  0.04578000  0.19924000  0.69973000  1
  H  H136  1  0.97352000  0.08503000  0.93087000  1
  H  H137  1  0.14858000  0.13253000  0.77877000  1
  H  H138  1  0.28172000  0.65183000  0.93074000  1
  H  H139  1  0.26155000  0.58311000  0.46781000  1
  H  H140  1  0.78171000  0.34817000  0.06926000  1
  H  H141  1  0.25277000  0.68769000  0.84133000  1
  H  H142  1  0.14811000  0.83370000  0.59676000  1
  H  H143  1  0.97653000  0.05002000  0.05002000  1
  H  H144  1  0.55631000  0.44763000  0.95097000  1
  H  H145  1  0.67225000  0.69277000  0.20824000  1
  H  H146  1  0.15759000  0.90436000  0.32564000  1
  H  H147  1  0.97990000  0.61966000  0.80039000  1
  H  H148  1  0.16596000  0.71846000  0.71845000  1
  H  H149  1  0.44420000  0.43434000  0.53379000  1
  H  H150  1  0.57467000  0.84310000  0.42954000  1
  H  H151  1  0.57956000  0.15841000  0.92241000  1
  H  H152  1  0.44238000  0.29141000  0.22615000  1
  H  H153  1  0.72460000  0.26115000  0.74928000  1
  H  H154  1  0.14784000  0.31911000  0.08682000  1
  H  H155  1  0.07869000  0.02668000  0.37694000  1
  H  H156  1  0.55859000  0.04093000  0.04093000  1
  H  H157  1  0.28450000  0.14869000  0.41820000  1
  H  H158  1  0.05430000  0.74211000  0.74210000  1
  H  H159  1  0.18041000  0.44575000  0.95413000  1
  H  H160  1  0.78171000  0.06926000  0.34817000  1
  H  H161  1  0.00278000  0.99486000  0.49800000  1
  H  H162  1  0.43929000  0.74237000  0.81110000  1
  H  H163  1  0.47352000  0.91498000  0.06912000  1
  H  H164  1  0.58626000  0.92317000  0.92317000  1
  H  H165  1  0.07468000  0.15690000  0.57045000  1
  H  H166  1  0.25105000  0.80875000  0.80875000  1
  H  H167  1  0.94547000  0.17474000  0.89643000  1
  H  H168  1  0.56568000  0.66125000  0.43080000  1
  H  H169  1  0.25038000  0.04869000  0.85716000  1
  H  H170  1  0.47990000  0.38035000  0.19961000  1
  H  H171  1  0.23428000  0.60986000  0.37675000  1
  H  H172  1  0.13748000  0.28084000  0.62757000  1
  H  H173  1  0.56568000  0.43080000  0.66125000  1
  H  H174  1  0.75590000  0.82574000  0.67314000  1
  H  H175  1  0.00128000  0.50817000  0.21020000  1
  H  H176  1  0.78658000  0.05466000  0.98448000  1
  H  H177  1  0.57956000  0.92241000  0.15841000  1
  H  H178  1  0.49484000  0.98285000  0.28088000  1
  H  H179  1  0.05860000  0.95907000  0.95906000  1
  H  H180  1  0.48612000  0.24982000  0.74585000  1
  H  H181  1  0.47351000  0.06912000  0.91498000  1
  H  H182  1  0.74125000  0.99283000  0.50270000  1
  H  H183  1  0.93928000  0.18889000  0.25763000  1
  H  H184  1  0.07468000  0.57046000  0.15690000  1
  H  H185  1  0.04578000  0.69974000  0.19924000  1
  H  H186  1  0.67225000  0.20825000  0.69276000  1
  H  H187  1  0.92254000  0.65896000  0.44460000  1
  H  H188  1  0.99484000  0.01716000  0.71911000  1
  H  H189  1  0.54577000  0.80076000  0.30027000  1
  H  H190  1  0.78658000  0.98449000  0.05466000  1
  H  H191  1  0.65761000  0.67435000  0.09564000  1
  H  H192  1  0.55736000  0.77780000  0.77780000  1
  H  H193  1  0.64786000  0.68089000  0.91318000  1
  H  H194  1  0.28657000  0.94533000  0.01551000  1
  H  H195  1  0.55631000  0.95098000  0.44762000  1
  H  H196  1  0.24127000  0.49729000  0.00717000  1
  H  H197  1  0.56805000  0.33932000  0.92500000  1
  H  H198  1  0.44549000  0.10357000  0.82527000  1
  H  H199  1  0.44238000  0.22615000  0.29141000  1
  H  H200  1  0.64858000  0.22122000  0.86748000  1
  H  H201  1  0.66595000  0.28154000  0.28154000  1
  H  H202  1  0.94238000  0.70859000  0.77385000  1
  H  H203  1  0.05736000  0.22221000  0.22220000  1
  H  H204  1  0.75590000  0.67314000  0.82574000  1
  H  H205  1  0.28172000  0.93074000  0.65183000  1
  H  H206  1  0.17227000  0.79175000  0.30723000  1
  H  H207  1  0.64812000  0.16632000  0.40323000  1
  C  C208  1  0.59941000  0.76200000  0.76199000  1
  C  C209  1  0.82557000  0.21714000  0.89945000  1
  C  C210  1  0.20601000  0.79496000  0.79496000  1
  C  C211  1  0.55544000  0.50111000  0.00143000  1
  C  C212  1  0.58918000  0.20856000  0.20856000  1
  C  C213  1  0.88619000  0.63191000  0.43736000  1
  C  C214  1  0.52675000  0.46562000  0.72107000  1
  C  C215  1  0.90921000  0.91615000  0.14926000  1
  C  C216  1  0.16162000  0.22521000  0.22521000  1
  C  C217  1  0.32060000  0.16573000  0.39098000  1
  C  C218  1  0.39796000  0.55022000  0.41950000  1
  C  C219  1  0.32659000  0.58510000  0.35129000  1
  C  C220  1  0.14703000  0.29100000  0.29100000  1
  C  C221  1  0.08528000  0.52900000  0.02864000  1
  C  C222  1  0.69760000  0.02397000  0.71069000  1
  C  C223  1  0.19759000  0.97604000  0.28931000  1
  C  C224  1  0.06596000  0.56873000  0.29859000  1
  C  C225  1  0.65290000  0.44276000  0.16885000  1
  C  C226  1  0.56818000  0.92520000  0.29897000  1
  C  C227  1  0.90891000  0.79087000  0.67930000  1
  C  C228  1  0.88494000  0.82842000  0.59372000  1
  C  C229  1  0.65290000  0.16885000  0.44276000  1
  C  C230  1  0.20211000  0.79590000  0.49067000  1
  C  C231  1  0.03892000  0.25409000  0.74857000  1
  C  C232  1  0.70212000  0.20410000  0.50932000  1
  C  C233  1  0.31206000  0.29781000  0.59983000  1
  C  C234  1  0.92508000  0.09960000  0.93575000  1
  C  C235  1  0.07190000  0.72067000  0.22380000  1
  C  C236  1  0.59668000  0.24230000  0.24229000  1
  C  C237  1  0.90187000  0.34620000  0.02789000  1
  C  C238  1  0.20322000  0.04473000  0.04473000  1
  C  C239  1  0.69858000  0.45785000  0.20182000  1
  C  C240  1  0.38620000  0.36809000  0.56264000  1
  C  C241  1  0.15470000  0.46970000  0.97596000  1
  C  C242  1  0.57482000  0.22488000  0.71498000  1
  C  C243  1  0.19856000  0.79818000  0.54215000  1
  C  C244  1  0.66130000  0.17352000  0.54283000  1
  C  C245  1  0.48992000  0.17763000  0.98844000  1
  C  C246  1  0.56597000  0.70141000  0.43127000  1
  C  C247  1  0.18847000  0.49833000  0.00524000  1
  C  C248  1  0.07523000  0.07630000  0.80174000  1
  C  C249  1  0.40922000  0.08385000  0.85074000  1
  C  C250  1  0.31769000  0.67174000  0.90514000  1
  C  C251  1  0.60529000  0.73364000  0.39840000  1
  C  C252  1  0.20211000  0.49067000  0.79590000  1
  C  C253  1  0.84521000  0.92079000  0.16589000  1
  C  C254  1  0.42678000  0.70180000  0.88695000  1
  C  C255  1  0.23643000  0.06397000  0.25427000  1
  C  C256  1  0.73644000  0.93604000  0.74573000  1
  C  C257  1  0.63778000  0.96865000  0.96864000  1
  C  C258  1  0.90891000  0.67930000  0.79087000  1
  C  C259  1  0.64293000  0.22821000  0.71627000  1
  C  C260  1  0.48992000  0.98844000  0.17763000  1
  C  C261  1  0.30030000  0.86861000  0.05362000  1
  C  C262  1  0.61377000  0.98688000  0.64758000  1
  C  C263  1  0.10529000  0.60160000  0.26636000  1
  C  C264  1  0.57057000  0.43082000  0.80270000  1
  C  C265  1  0.80127000  0.30767000  0.14411000  1
  C  C266  1  0.48432000  0.68779000  0.49977000  1
  C  C267  1  0.98431000  0.50024000  0.31221000  1
  C  C268  1  0.38206000  0.67568000  0.92119000  1
  C  C269  1  0.07057000  0.56918000  0.19730000  1
  C  C270  1  0.07483000  0.77511000  0.28502000  1
  C  C271  1  0.07057000  0.19731000  0.56918000  1
  C  C272  1  0.30030000  0.05362000  0.86861000  1
  C  C273  1  0.92677000  0.11305000  0.29821000  1
  C  C274  1  0.57057000  0.80270000  0.43082000  1
  C  C275  1  0.13780000  0.03135000  0.03135000  1
  C  C276  1  0.79632000  0.56137000  0.42146000  1
  C  C277  1  0.09941000  0.23801000  0.23800000  1
  C  C278  1  0.06695000  0.98496000  0.98495000  1
  C  C279  1  0.23983000  0.76827000  0.57992000  1
  C  C280  1  0.70321000  0.95526000  0.95526000  1
  C  C281  1  0.61314000  0.89270000  0.23323000  1
  C  C282  1  0.40587000  0.72237000  0.83885000  1
  C  C283  1  0.65342000  0.47095000  0.96741000  1
  C  C284  1  0.06596000  0.29860000  0.56873000  1
  C  C285  1  0.40587000  0.83886000  0.72237000  1
  C  C286  1  0.19554000  0.28741000  0.02831000  1
  C  C287  1  0.81206000  0.70220000  0.40017000  1
  C  C288  1  0.73644000  0.74573000  0.93603000  1
  C  C289  1  0.03020000  0.22697000  0.53455000  1
  C  C290  1  0.23983000  0.57992000  0.76827000  1
  C  C291  1  0.68646000  0.44041000  0.93587000  1
  C  C292  1  0.31769000  0.90514000  0.67174000  1
  C  C293  1  0.69858000  0.20182000  0.45785000  1
  C  C294  1  0.08528000  0.02864000  0.52900000  1
  C  C295  1  0.11315000  0.10730000  0.76676000  1
  C  C296  1  0.56818000  0.29897000  0.92519000  1
  C  C297  1  0.65170000  0.95341000  0.68025000  1
  C  C298  1  0.65342000  0.96741000  0.47095000  1
  C  C299  1  0.28114000  0.59289000  0.38797000  1
  C  C300  1  0.18847000  0.00524000  0.49833000  1
  C  C301  1  0.05545000  0.99858000  0.49889000  1
  C  C302  1  0.42508000  0.06425000  0.90041000  1
  C  C303  1  0.14294000  0.77179000  0.28373000  1
  C  C304  1  0.68846000  0.99476000  0.50166000  1
  C  C305  1  0.55544000  0.00143000  0.50110000  1
  C  C306  1  0.53020000  0.77303000  0.46545000  1
  C  C307  1  0.59112000  0.72837000  0.72837000  1
  C  C308  1  0.88619000  0.43736000  0.63191000  1
  C  C309  1  0.52409000  0.19472000  0.19472000  1
  C  C310  1  0.98993000  0.01156000  0.82237000  1
  C  C311  1  0.90586000  0.27763000  0.16114000  1
  C  C312  1  0.03083000  0.78543000  0.04309000  1
  C  C313  1  0.29632000  0.43863000  0.57853000  1
  C  C314  1  0.90921000  0.14926000  0.91615000  1
  C  C315  1  0.65469000  0.02404000  0.53029000  1
  C  C316  1  0.02674000  0.27892000  0.53438000  1
  C  C317  1  0.53082000  0.21457000  0.95690000  1
  C  C318  1  0.70601000  0.20504000  0.20504000  1
  C  C319  1  0.90466000  0.54161000  0.84504000  1
  C  C320  1  0.90466000  0.84505000  0.54160000  1
  C  C321  1  0.82557000  0.89945000  0.21714000  1
  C  C322  1  0.73985000  0.42008000  0.23172000  1
  C  C323  1  0.03083000  0.04309000  0.78543000  1
  C  C324  1  0.19554000  0.02832000  0.28741000  1
  C  C325  1  0.06819000  0.07481000  0.70102000  1
  C  C326  1  0.08180000  0.05071000  0.05070000  1
  C  C327  1  0.81769000  0.32826000  0.09486000  1
  C  C328  1  0.32045000  0.91736000  0.03460000  1
  C  C329  1  0.08918000  0.79144000  0.79143000  1
  C  C330  1  0.07523000  0.80174000  0.07629000  1
  C  C331  1  0.81206000  0.40017000  0.70220000  1
  C  C332  1  0.68646000  0.93587000  0.44041000  1
  C  C333  1  0.68846000  0.50167000  0.99476000  1
  C  C334  1  0.15775000  0.32337000  0.94503000  1
  C  C335  1  0.38206000  0.92120000  0.67568000  1
  C  C336  1  0.34522000  0.07922000  0.83410000  1
  C  C337  1  0.88205000  0.32433000  0.07880000  1
  C  C338  1  0.32060000  0.39098000  0.16573000  1
  C  C339  1  0.02115000  0.03590000  0.03590000  1
  C  C340  1  0.53891000  0.25143000  0.74591000  1
  C  C341  1  0.40189000  0.97210000  0.65380000  1
  C  C342  1  0.40892000  0.32070000  0.20913000  1
  C  C343  1  0.02674000  0.53439000  0.27892000  1
  C  C344  1  0.17203000  0.74270000  0.25238000  1
  C  C345  1  0.15170000  0.31975000  0.04659000  1
  C  C346  1  0.16131000  0.82649000  0.45716000  1
  C  C347  1  0.52113000  0.96409000  0.96409000  1
  C  C348  1  0.11376000  0.01312000  0.35242000  1
  C  C349  1  0.81769000  0.09486000  0.32826000  1
  C  C350  1  0.42974000  0.36993000  0.19391000  1
  C  C351  1  0.61377000  0.64758000  0.98688000  1
  C  C352  1  0.80030000  0.94639000  0.13138000  1
  C  C353  1  0.61424000  0.47859000  0.13971000  1
  C  C354  1  0.62923000  0.00230000  0.00230000  1
  C  C355  1  0.32559000  0.10056000  0.78285000  1
  C  C356  1  0.14294000  0.28373000  0.77179000  1
  C  C357  1  0.65851000  0.25557000  0.25557000  1
  C  C358  1  0.64586000  0.18971000  0.18971000  1
  C  C359  1  0.57482000  0.71498000  0.22488000  1
  C  C360  1  0.58526000  0.47100000  0.97136000  1
  C  C361  1  0.48432000  0.49977000  0.68779000  1
  C  C362  1  0.56695000  0.01504000  0.01504000  1
  C  C363  1  0.52813000  0.95758000  0.26642000  1
  C  C364  1  0.92974000  0.80610000  0.63007000  1
  C  C365  1  0.06819000  0.70102000  0.07480000  1
  C  C366  1  0.09669000  0.75771000  0.75770000  1
  C  C367  1  0.19856000  0.54215000  0.79818000  1
  C  C368  1  0.32659000  0.35129000  0.58510000  1
  C  C369  1  0.15289000  0.83115000  0.55724000  1
  C  C370  1  0.04209000  0.80510000  0.31707000  1
  C  C371  1  0.19759000  0.28931000  0.97603000  1
  C  C372  1  0.92677000  0.29821000  0.11305000  1
  C  C373  1  0.02814000  0.73358000  0.04242000  1
  C  C374  1  0.40189000  0.65380000  0.97210000  1
  C  C375  1  0.30435000  0.34058000  0.18069000  1
  C  C376  1  0.42974000  0.19391000  0.36993000  1
  C  C377  1  0.57522000  0.92371000  0.19825000  1
  C  C378  1  0.82060000  0.60902000  0.83427000  1
  C  C379  1  0.04209000  0.31707000  0.80510000  1
  C  C380  1  0.88494000  0.59372000  0.82842000  1
  C  C381  1  0.11424000  0.52141000  0.86030000  1
  C  C382  1  0.98993000  0.82237000  0.01155000  1
  C  C383  1  0.57189000  0.77620000  0.27933000  1
  C  C384  1  0.10529000  0.26637000  0.60160000  1
  C  C385  1  0.52675000  0.72108000  0.46562000  1
  C  C386  1  0.56597000  0.43127000  0.70140000  1
  C  C387  1  0.80030000  0.13138000  0.94638000  1
  C  C388  1  0.90586000  0.16114000  0.27763000  1
  C  C389  1  0.40922000  0.85074000  0.08385000  1
  C  C390  1  0.38494000  0.40628000  0.17158000  1
  C  C391  1  0.92508000  0.93575000  0.09959000  1
  C  C392  1  0.79632000  0.42147000  0.56137000  1
  C  C393  1  0.07190000  0.22380000  0.72067000  1
  C  C394  1  0.38494000  0.17159000  0.40627000  1
  C  C395  1  0.65170000  0.68026000  0.95341000  1
  C  C396  1  0.69277000  0.41845000  0.41845000  1
  C  C397  1  0.64293000  0.71627000  0.22821000  1
  C  C398  1  0.69554000  0.71260000  0.97169000  1
  C  C399  1  0.32559000  0.78285000  0.10055000  1
  C  C400  1  0.12924000  0.99770000  0.99769000  1
  C  C401  1  0.53082000  0.95691000  0.21456000  1
  C  C402  1  0.67202000  0.74762000  0.25730000  1
  C  C403  1  0.18647000  0.06413000  0.55959000  1
  C  C404  1  0.11424000  0.86030000  0.52140000  1
  C  C405  1  0.11315000  0.76676000  0.10730000  1
  C  C406  1  0.15343000  0.03259000  0.52904000  1
  C  C407  1  0.11376000  0.35242000  0.01312000  1
  C  C408  1  0.65776000  0.67663000  0.05497000  1
  C  C409  1  0.69554000  0.97169000  0.71260000  1
  C  C410  1  0.17203000  0.25238000  0.74270000  1
  C  C411  1  0.03020000  0.53455000  0.22697000  1
  C  C412  1  0.16131000  0.45717000  0.82648000  1
  C  C413  1  0.15289000  0.55724000  0.83115000  1
  C  C414  1  0.40466000  0.45840000  0.15496000  1
  C  C415  1  0.84521000  0.16589000  0.92079000  1
  C  C416  1  0.15170000  0.04659000  0.31975000  1
  C  C417  1  0.92974000  0.63007000  0.80609000  1
  C  C418  1  0.15470000  0.97596000  0.46970000  1
  C  C419  1  0.32045000  0.03460000  0.91736000  1
  C  C420  1  0.34522000  0.83410000  0.07921000  1
  C  C421  1  0.53891000  0.74592000  0.25142000  1
  C  C422  1  0.15852000  0.74443000  0.74442000  1
  C  C423  1  0.82659000  0.64871000  0.41490000  1
  C  C424  1  0.66130000  0.54283000  0.17352000  1
  C  C425  1  0.40892000  0.20913000  0.32070000  1
  C  C426  1  0.70759000  0.72385000  0.72385000  1
  C  C427  1  0.58178000  0.94929000  0.94929000  1
  C  C428  1  0.82045000  0.08263000  0.96540000  1
  C  C429  1  0.07483000  0.28503000  0.77511000  1
  C  C430  1  0.02814000  0.04242000  0.73358000  1
  C  C431  1  0.30127000  0.85589000  0.69233000  1
  C  C432  1  0.38620000  0.56265000  0.36809000  1
  C  C433  1  0.67202000  0.25730000  0.74762000  1
  C  C434  1  0.88205000  0.07880000  0.32432000  1
  C  C435  1  0.03892000  0.74857000  0.25409000  1
  C  C436  1  0.18647000  0.55959000  0.06412000  1
  C  C437  1  0.28114000  0.38797000  0.59289000  1
  C  C438  1  0.30435000  0.18069000  0.34057000  1
  C  C439  1  0.05545000  0.49889000  0.99858000  1
  C  C440  1  0.14586000  0.81029000  0.81029000  1
  C  C441  1  0.52813000  0.26642000  0.95758000  1
  C  C442  1  0.39796000  0.41950000  0.55022000  1
  C  C443  1  0.53020000  0.46545000  0.77303000  1
  C  C444  1  0.65469000  0.53029000  0.02404000  1
  C  C445  1  0.82659000  0.41491000  0.64871000  1
  C  C446  1  0.89795000  0.58049000  0.44978000  1
  C  C447  1  0.54209000  0.68294000  0.19489000  1
  C  C448  1  0.54209000  0.19490000  0.68293000  1
  C  C449  1  0.82045000  0.96540000  0.08263000  1
  C  C450  1  0.65776000  0.05497000  0.67663000  1
  C  C451  1  0.70212000  0.50933000  0.20410000  1
  C  C452  1  0.15775000  0.94503000  0.32337000  1
  C  C453  1  0.78114000  0.61203000  0.40711000  1
  C  C454  1  0.58526000  0.97136000  0.47099000  1
  C  C455  1  0.60529000  0.39840000  0.73364000  1
  C  C456  1  0.89795000  0.44978000  0.58049000  1
  C  C457  1  0.31206000  0.59983000  0.29780000  1
  C  C458  1  0.15343000  0.52905000  0.03259000  1
  C  C459  1  0.23643000  0.25427000  0.06397000  1
  C  C460  1  0.42678000  0.88695000  0.70179000  1
  C  C461  1  0.66161000  0.77479000  0.77479000  1
  C  C462  1  0.57522000  0.19826000  0.92370000  1
  C  C463  1  0.82060000  0.83428000  0.60902000  1
  C  C464  1  0.29632000  0.57853000  0.43863000  1
  C  C465  1  0.40466000  0.15496000  0.45839000  1
  C  C466  1  0.80126000  0.14411000  0.30766000  1
  C  C467  1  0.98431000  0.31221000  0.50023000  1
  C  C468  1  0.09112000  0.27163000  0.27163000  1
  C  C469  1  0.30127000  0.69233000  0.85588000  1
  C  C470  1  0.78114000  0.40711000  0.61203000  1
  C  C471  1  0.80435000  0.65942000  0.81931000  1
  C  C472  1  0.20759000  0.27615000  0.27615000  1
  C  C473  1  0.64703000  0.70900000  0.70900000  1
  C  C474  1  0.61424000  0.13971000  0.47858000  1
  C  C475  1  0.57189000  0.27933000  0.77620000  1
  C  C476  1  0.02598000  0.28517000  0.28517000  1
  C  C477  1  0.19278000  0.58154000  0.58154000  1
  C  C478  1  0.80435000  0.81932000  0.65942000  1
  C  C479  1  0.90187000  0.02789000  0.34620000  1
  C  C480  1  0.52597000  0.71483000  0.71483000  1
  C  C481  1  0.69760000  0.71069000  0.02397000  1
  C  C482  1  0.61314000  0.23323000  0.89270000  1
  C  C483  1  0.42508000  0.90041000  0.06424000  1
  C  C484  1  0.73985000  0.23172000  0.42008000  1
  C  C485  1  0.02409000  0.80527000  0.80527000  1
  N  N486  1  0.77225000  0.78501000  0.94547000  1
  N  N487  1  0.21281000  0.76261000  0.76260000  1
  N  N488  1  0.80796000  0.28440000  0.38292000  1
  N  N489  1  0.24015000  0.62847000  0.77481000  1
  N  N490  1  0.45771000  0.54236000  0.69874000  1
  N  N491  1  0.44490000  0.01663000  0.10767000  1
  N  N492  1  0.46029000  0.52295000  0.12511000  1
  N  N493  1  0.75737000  0.37537000  0.72028000  1
  N  N494  1  0.45229000  0.02718000  0.18593000  1
  N  N495  1  0.74199000  0.73961000  0.88754000  1
  N  N496  1  0.94490000  0.98338000  0.89232000  1
  N  N497  1  0.94281000  0.83682000  0.83682000  1
  N  N498  1  0.45877000  0.61982000  0.03418000  1
  N  N499  1  0.76502000  0.22988000  0.88223000  1
  N  N500  1  0.24015000  0.77481000  0.62846000  1
  N  N501  1  0.96724000  0.35865000  0.50774000  1
  N  N502  1  0.94490000  0.89233000  0.98338000  1
  N  N503  1  0.92478000  0.85847000  0.95575000  1
  N  N504  1  0.44490000  0.10767000  0.01663000  1
  N  N505  1  0.34750000  0.30559000  0.20235000  1
  N  N506  1  0.48601000  0.12932000  0.98140000  1
  N  N507  1  0.78850000  0.43279000  0.43278000  1
  N  N508  1  0.26804000  0.72045000  0.13323000  1
  N  N509  1  0.42291000  0.71339000  0.71339000  1
  N  N510  1  0.15491000  0.09045000  0.59032000  1
  N  N511  1  0.96156000  0.01560000  0.36535000  1
  N  N512  1  0.47264000  0.73377000  0.73377000  1
  N  N513  1  0.45771000  0.69874000  0.54236000  1
  N  N514  1  0.86642000  0.84104000  0.50197000  1
  N  N515  1  0.25159000  0.07121000  0.56048000  1
  N  N516  1  0.13735000  0.71747000  0.22261000  1
  N  N517  1  0.36642000  0.49803000  0.15897000  1
  N  N518  1  0.97679000  0.32188000  0.80746000  1
  N  N519  1  0.74017000  0.22518000  0.37153000  1
  N  N520  1  0.45877000  0.03419000  0.61982000  1
  N  N521  1  0.88169000  0.96010000  0.06629000  1
  N  N522  1  0.65490000  0.40967000  0.90954000  1
  N  N523  1  0.82802000  0.87478000  0.29592000  1
  N  N524  1  0.42942000  0.53122000  0.62372000  1
  N  N525  1  0.78318000  0.34927000  0.25850000  1
  N  N526  1  0.42397000  0.56160000  0.65797000  1
  N  N527  1  0.28852000  0.56721000  0.56721000  1
  N  N528  1  0.07325000  0.83420000  0.34537000  1
  N  N529  1  0.10747000  0.60276000  0.21618000  1
  N  N530  1  0.46763000  0.16119000  0.64616000  1
  N  N531  1  0.51023000  0.68320000  0.68320000  1
  N  N532  1  0.42477000  0.14153000  0.04425000  1
  N  N533  1  0.35402000  0.55776000  0.45443000  1
  N  N534  1  0.47678000  0.19253000  0.67812000  1
  N  N535  1  0.42397000  0.65798000  0.56160000  1
  N  N536  1  0.30029000  0.19666000  0.09847000  1
  N  N537  1  0.95231000  0.81408000  0.97281000  1
  N  N538  1  0.28224000  0.22411000  0.13303000  1
  N  N539  1  0.40262000  0.14050000  0.53776000  1
  N  N540  1  0.01023000  0.31680000  0.31680000  1
  N  N541  1  0.57325000  0.65464000  0.16579000  1
  N  N542  1  0.26006000  0.59243000  0.10276000  1
  N  N543  1  0.46157000  0.98439000  0.63464000  1
  N  N544  1  0.85401000  0.44224000  0.54556000  1
  N  N545  1  0.97679000  0.80746000  0.32188000  1
  N  N546  1  0.82802000  0.29592000  0.87478000  1
  N  N547  1  0.42110000  0.19366000  0.19366000  1
  N  N548  1  0.98601000  0.87068000  0.01861000  1
  N  N549  1  0.28597000  0.60003000  0.60003000  1
  N  N550  1  0.51331000  0.99639000  0.99638000  1
  N  N551  1  0.85115000  0.73968000  0.40963000  1
  N  N552  1  0.52536000  0.63213000  0.14510000  1
  N  N553  1  0.61669000  0.03730000  0.64486000  1
  N  N554  1  0.39990000  0.05098000  0.63027000  1
  N  N555  1  0.78460000  0.92383000  0.92383000  1
  N  N556  1  0.65490000  0.90955000  0.40967000  1
  N  N557  1  0.35116000  0.26033000  0.59038000  1
  N  N558  1  0.76327000  0.36970000  0.77007000  1
  N  N559  1  0.92397000  0.34203000  0.43840000  1
  N  N560  1  0.22399000  0.60978000  0.60978000  1
  N  N561  1  0.97108000  0.78614000  0.78614000  1
  N  N562  1  0.44281000  0.16318000  0.16317000  1
  N  N563  1  0.46029000  0.12511000  0.52295000  1
  N  N564  1  0.30621000  0.04564000  0.04564000  1
  N  N565  1  0.58920000  0.53058000  0.02760000  1
  N  N566  1  0.78153000  0.42788000  0.26822000  1
  N  N567  1  0.95771000  0.45764000  0.30126000  1
  N  N568  1  0.24199000  0.11246000  0.26040000  1
  N  N569  1  0.30794000  0.71560000  0.61708000  1
  N  N570  1  0.22739000  0.55453000  0.55452000  1
  N  N571  1  0.28151000  0.73177000  0.57212000  1
  N  N572  1  0.95876000  0.38018000  0.96581000  1
  N  N573  1  0.75610000  0.97453000  0.97452000  1
  N  N574  1  0.92940000  0.46879000  0.37628000  1
  N  N575  1  0.26504000  0.11778000  0.77012000  1
  N  N576  1  0.31952000  0.60962000  0.21843000  1
  N  N577  1  0.86291000  0.98732000  0.34868000  1
  N  N578  1  0.11668000  0.96271000  0.35514000  1
  N  N579  1  0.24199000  0.26041000  0.11246000  1
  N  N580  1  0.86542000  0.89495000  0.25743000  1
  N  N581  1  0.96763000  0.35384000  0.83880000  1
  N  N582  1  0.21985000  0.07630000  0.07629000  1
  N  N583  1  0.20224000  0.61026000  0.11421000  1
  N  N584  1  0.78318000  0.25851000  0.34927000  1
  N  N585  1  0.61669000  0.64486000  0.03729000  1
  N  N586  1  0.92292000  0.28661000  0.28661000  1
  N  N587  1  0.77225000  0.94547000  0.78500000  1
  N  N588  1  0.76802000  0.27955000  0.86677000  1
  N  N589  1  0.32804000  0.12522000  0.70408000  1
  N  N590  1  0.96724000  0.50774000  0.35864000  1
  N  N591  1  0.28224000  0.13303000  0.22411000  1
  N  N592  1  0.30029000  0.09848000  0.19666000  1
  N  N593  1  0.28316000  0.74150000  0.65073000  1
  N  N594  1  0.28151000  0.57212000  0.73176000  1
  N  N595  1  0.26326000  0.22993000  0.63029000  1
  N  N596  1  0.15491000  0.59032000  0.09045000  1
  N  N597  1  0.11668000  0.35514000  0.96271000  1
  N  N598  1  0.76502000  0.88223000  0.22988000  1
  N  N599  1  0.71985000  0.92370000  0.92370000  1
  N  N600  1  0.63734000  0.28253000  0.77739000  1
  N  N601  1  0.02535000  0.36787000  0.85489000  1
  N  N602  1  0.46304000  0.47274000  0.13424000  1
  N  N603  1  0.75158000  0.92879000  0.43952000  1
  N  N604  1  0.95876000  0.96581000  0.38017000  1
  N  N605  1  0.72737000  0.44547000  0.44547000  1
  N  N606  1  0.60746000  0.39724000  0.78382000  1
  N  N607  1  0.26804000  0.13323000  0.72045000  1
  N  N608  1  0.80796000  0.38292000  0.28440000  1
  N  N609  1  0.81951000  0.78157000  0.39039000  1
  N  N610  1  0.48601000  0.98140000  0.12932000  1
  N  N611  1  0.92478000  0.95575000  0.85847000  1
  N  N612  1  0.10987000  0.71678000  0.10739000  1
  N  N613  1  0.38169000  0.03990000  0.93371000  1
  N  N614  1  0.57325000  0.16579000  0.65463000  1
  N  N615  1  0.52536000  0.14511000  0.63213000  1
  N  N616  1  0.76802000  0.86678000  0.27955000  1
  N  N617  1  0.28316000  0.65073000  0.74149000  1
  N  N618  1  0.90262000  0.46224000  0.85951000  1
  N  N619  1  0.26326000  0.63030000  0.22993000  1
  N  N620  1  0.74017000  0.37154000  0.22518000  1
  N  N621  1  0.25159000  0.56048000  0.07121000  1
  N  N622  1  0.60746000  0.78382000  0.39724000  1
  N  N623  1  0.46763000  0.64617000  0.16118000  1
  N  N624  1  0.36292000  0.01268000  0.65132000  1
  N  N625  1  0.47996000  0.51469000  0.51469000  1
  N  N626  1  0.50763000  0.16312000  0.16312000  1
  N  N627  1  0.85115000  0.40964000  0.73967000  1
  N  N628  1  0.07325000  0.34537000  0.83420000  1
  N  N629  1  0.36544000  0.10506000  0.74256000  1
  N  N630  1  0.70224000  0.88578000  0.38974000  1
  N  N631  1  0.36642000  0.15897000  0.49803000  1
  N  N632  1  0.35116000  0.59038000  0.26033000  1
  N  N633  1  0.84750000  0.69442000  0.79765000  1
  N  N634  1  0.47678000  0.67812000  0.19253000  1
  N  N635  1  0.26006000  0.10276000  0.59242000  1
  N  N636  1  0.78153000  0.26823000  0.42788000  1
  N  N637  1  0.81951000  0.39039000  0.78157000  1
  N  N638  1  0.13735000  0.22261000  0.71747000  1
  N  N639  1  0.92397000  0.43840000  0.34202000  1
  N  N640  1  0.89989000  0.94901000  0.36972000  1
  N  N641  1  0.44558000  0.68307000  0.68307000  1
  N  N642  1  0.25736000  0.27972000  0.62461000  1
  N  N643  1  0.88169000  0.06629000  0.96010000  1
  N  N644  1  0.63734000  0.77739000  0.28253000  1
  N  N645  1  0.75737000  0.72028000  0.37537000  1
  N  N646  1  0.84440000  0.17712000  0.28257000  1
  N  N647  1  0.36292000  0.65132000  0.01267000  1
  N  N648  1  0.86291000  0.34868000  0.98731000  1
  N  N649  1  0.96305000  0.52726000  0.86576000  1
  N  N650  1  0.25612000  0.02547000  0.02547000  1
  N  N651  1  0.46726000  0.64135000  0.49227000  1
  N  N652  1  0.02535000  0.85489000  0.36787000  1
  N  N653  1  0.61819000  0.52821000  0.14130000  1
  N  N654  1  0.21519000  0.24386000  0.24385000  1
  N  N655  1  0.76327000  0.77007000  0.36970000  1
  N  N656  1  0.70224000  0.38974000  0.88578000  1
  N  N657  1  0.78224000  0.86697000  0.77589000  1
  N  N658  1  0.30794000  0.61708000  0.71559000  1
  N  N659  1  0.86542000  0.25743000  0.89495000  1
  N  N660  1  0.34750000  0.20235000  0.30558000  1
  N  N661  1  0.26504000  0.77012000  0.11778000  1
  N  N662  1  0.27222000  0.05454000  0.21499000  1
  N  N663  1  0.20224000  0.11421000  0.61026000  1
  N  N664  1  0.75158000  0.43952000  0.92879000  1
  N  N665  1  0.78224000  0.77590000  0.86697000  1
  N  N666  1  0.96030000  0.47705000  0.87489000  1
  N  N667  1  0.11819000  0.85871000  0.47179000  1
  N  N668  1  0.95771000  0.30126000  0.45764000  1
  N  N669  1  0.08921000  0.46942000  0.97240000  1
  N  N670  1  0.35402000  0.45443000  0.55776000  1
  N  N671  1  0.36544000  0.74256000  0.10506000  1
  N  N672  1  0.80031000  0.90153000  0.80333000  1
  N  N673  1  0.71281000  0.23740000  0.23739000  1
  N  N674  1  0.61819000  0.14131000  0.52820000  1
  N  N675  1  0.84440000  0.28258000  0.17712000  1
  N  N676  1  0.89989000  0.36972000  0.94901000  1
  N  N677  1  0.96305000  0.86576000  0.52725000  1
  N  N678  1  0.40262000  0.53777000  0.14050000  1
  N  N679  1  0.94558000  0.31693000  0.31693000  1
  N  N680  1  0.80619000  0.95436000  0.95436000  1
  N  N681  1  0.76006000  0.40758000  0.89724000  1
  N  N682  1  0.46304000  0.13424000  0.47274000  1
  N  N683  1  0.42477000  0.04425000  0.14153000  1
  N  N684  1  0.58920000  0.02760000  0.53058000  1
  N  N685  1  0.85401000  0.54556000  0.44224000  1
  N  N686  1  0.47108000  0.21386000  0.21386000  1
  N  N687  1  0.31952000  0.21843000  0.60962000  1
  N  N688  1  0.46157000  0.63464000  0.98439000  1
  N  N689  1  0.96763000  0.83880000  0.35383000  1
  N  N690  1  0.38169000  0.93371000  0.03990000  1
  N  N691  1  0.97264000  0.26623000  0.26623000  1
  N  N692  1  0.60986000  0.28321000  0.89261000  1
  N  N693  1  0.72398000  0.39021000  0.39021000  1
  N  N694  1  0.86642000  0.50197000  0.84104000  1
  N  N695  1  0.34440000  0.71743000  0.82288000  1
  N  N696  1  0.92111000  0.80634000  0.80633000  1
  N  N697  1  0.32804000  0.70408000  0.12522000  1
  N  N698  1  0.46726000  0.49227000  0.64135000  1
  N  N699  1  0.01332000  0.00361000  0.00361000  1
  N  N700  1  0.80031000  0.80334000  0.90153000  1
  N  N701  1  0.92940000  0.37628000  0.46878000  1
  N  N702  1  0.90262000  0.85951000  0.46223000  1
  N  N703  1  0.98601000  0.01861000  0.87068000  1
  N  N704  1  0.08921000  0.97240000  0.46942000  1
  N  N705  1  0.25736000  0.62462000  0.27972000  1
  N  N706  1  0.78596000  0.39997000  0.39996000  1
  N  N707  1  0.27222000  0.21499000  0.05453000  1
  N  N708  1  0.10987000  0.10739000  0.71678000  1
  N  N709  1  0.42942000  0.62372000  0.53122000  1
  N  N710  1  0.10747000  0.21618000  0.60276000  1
  N  N711  1  0.74199000  0.88754000  0.73960000  1
  N  N712  1  0.95230000  0.97281000  0.81408000  1
  N  N713  1  0.60986000  0.89261000  0.28321000  1
  N  N714  1  0.76006000  0.89724000  0.40758000  1
  N  N715  1  0.96156000  0.36535000  0.01560000  1
  N  N716  1  0.39990000  0.63027000  0.05098000  1
  N  N717  1  0.11819000  0.47179000  0.85870000  1
  N  N718  1  0.71519000  0.75615000  0.75614000  1
  N  N719  1  0.00763000  0.83688000  0.83687000  1
  N  N720  1  0.84750000  0.79765000  0.69441000  1
  N  N721  1  0.34440000  0.82288000  0.71742000  1
  N  N722  1  0.28460000  0.07617000  0.07616000  1
  N  N723  1  0.97995000  0.48530000  0.48530000  1
  N  N724  1  0.45229000  0.18593000  0.02718000  1
  N  N725  1  0.96029000  0.87489000  0.47705000  1
