# generated using pymatgen
data_Cd2H24(C11O4)3
_symmetry_space_group_name_H-M   'P 1'
_cell_length_a   7.16532000
_cell_length_b   18.92285000
_cell_length_c   37.09022162
_cell_angle_alpha   88.99184770
_cell_angle_beta   84.48926360
_cell_angle_gamma   79.13404000
_symmetry_Int_Tables_number   1
_chemical_formula_structural   Cd2H24(C11O4)3
_chemical_formula_sum   'Cd8 H96 C132 O48'
_cell_volume   4916.00680997
_cell_formula_units_Z   4
loop_
 _symmetry_equiv_pos_site_id
 _symmetry_equiv_pos_as_xyz
  1  'x, y, z'
loop_
 _atom_site_type_symbol
 _atom_site_label
 _atom_site_symmetry_multiplicity
 _atom_site_fract_x
 _atom_site_fract_y
 _atom_site_fract_z
 _atom_site_occupancy
  Cd  Cd0  1  0.81205000  0.23707000  0.13991000  1
  Cd  Cd1  1  0.27804000  0.19076000  0.12766000  1
  Cd  Cd2  1  0.18863000  0.76274000  0.86022000  1
  Cd  Cd3  1  0.59515000  0.80799000  0.87254000  1
  Cd  Cd4  1  0.70472000  0.73708000  0.35980000  1
  Cd  Cd5  1  0.15638000  0.69180000  0.37198000  1
  Cd  Cd6  1  0.80277000  0.26241000  0.64003000  1
  Cd  Cd7  1  0.22093000  0.30829000  0.62710000  1
  H  H8  1  0.01890000  0.65494000  0.11513000  1
  H  H9  1  0.92346000  0.65316000  0.16152000  1
  H  H10  1  0.24262000  0.58032000  0.13468000  1
  H  H11  1  0.50045000  0.47439000  0.13820000  1
  H  H12  1  0.09405000  0.33527000  0.13220000  1
  H  H13  1  0.83531000  0.44012000  0.12919000  1
  H  H14  1  0.79601000  0.71482000  0.06763000  1
  H  H15  1  0.73163000  0.62868000  0.07600000  1
  H  H16  1  0.74544000  0.68483000  0.01419000  1
  H  H17  1  0.63941000  0.70380000  0.95266000  1
  H  H18  1  0.05897000  0.77259000  0.99719000  1
  H  H19  1  0.16242000  0.75232000  0.05977000  1
  H  H20  1  0.41043000  0.71668000  0.14092000  1
  H  H21  1  0.51811000  0.62327000  0.14035000  1
  H  H22  1  0.20476000  0.66572000  0.17565000  1
  H  H23  1  0.93901000  0.68547000  0.22493000  1
  H  H24  1  0.31966000  0.74307000  0.29753000  1
  H  H25  1  0.58783000  0.72023000  0.24915000  1
  H  H26  1  0.60650000  0.80962000  0.12158000  1
  H  H27  1  0.71697000  0.78143000  0.16203000  1
  H  H28  1  0.65707000  0.90610000  0.14639000  1
  H  H29  1  0.73718000  0.02683000  0.15047000  1
  H  H30  1  0.30804000  0.94779000  0.10367000  1
  H  H31  1  0.23129000  0.82505000  0.09945000  1
  H  H32  1  0.79113000  0.34441000  0.88516000  1
  H  H33  1  0.74188000  0.34588000  0.83870000  1
  H  H34  1  0.95963000  0.41914000  0.86505000  1
  H  H35  1  0.11452000  0.52540000  0.86161000  1
  H  H36  1  0.56254000  0.66371000  0.86783000  1
  H  H37  1  0.40643000  0.55885000  0.87096000  1
  H  H38  1  0.57948000  0.28363000  0.93234000  1
  H  H39  1  0.44019000  0.37039000  0.92416000  1
  H  H40  1  0.44282000  0.31505000  0.98620000  1
  H  H41  1  0.29475000  0.29462000  0.04751000  1
  H  H42  1  0.83042000  0.22478000  0.00227000  1
  H  H43  1  0.97588000  0.24652000  0.93993000  1
  H  H44  1  0.27063000  0.28332000  0.85836000  1
  H  H45  1  0.28584000  0.37659000  0.85922000  1
  H  H46  1  0.05276000  0.33382000  0.82384000  1
  H  H47  1  0.85601000  0.31391000  0.77463000  1
  H  H48  1  0.36614000  0.25750000  0.70187000  1
  H  H49  1  0.56331000  0.28028000  0.75032000  1
  H  H50  1  0.54087000  0.18955000  0.87944000  1
  H  H51  1  0.65366000  0.21744000  0.83783000  1
  H  H52  1  0.71065000  0.09346000  0.85282000  1
  H  H53  1  0.91368000  0.97266000  0.84937000  1
  H  H54  1  0.36018000  0.05161000  0.89594000  1
  H  H55  1  0.15813000  0.17469000  0.89957000  1
  H  H56  1  0.88467000  0.15538000  0.38504000  1
  H  H57  1  0.83710000  0.15328000  0.33859000  1
  H  H58  1  0.12954000  0.08094000  0.36553000  1
  H  H59  1  0.39211000  0.97535000  0.36192000  1
  H  H60  1  0.98169000  0.83557000  0.36722000  1
  H  H61  1  0.71896000  0.93988000  0.37046000  1
  H  H62  1  0.61304000  0.21431000  0.43221000  1
  H  H63  1  0.55644000  0.12826000  0.42366000  1
  H  H64  1  0.50959000  0.18449000  0.48566000  1
  H  H65  1  0.34273000  0.20400000  0.54720000  1
  H  H66  1  0.80660000  0.27306000  0.50281000  1
  H  H67  1  0.97155000  0.25203000  0.44020000  1
  H  H68  1  0.30218000  0.21551000  0.35868000  1
  H  H69  1  0.41220000  0.12241000  0.35891000  1
  H  H70  1  0.13211000  0.16546000  0.32376000  1
  H  H71  1  0.91513000  0.18527000  0.27456000  1
  H  H72  1  0.36778000  0.24304000  0.20198000  1
  H  H73  1  0.58780000  0.22030000  0.25034000  1
  H  H74  1  0.47859000  0.30957000  0.37855000  1
  H  H75  1  0.62838000  0.28131000  0.33797000  1
  H  H76  1  0.55395000  0.40588000  0.35358000  1
  H  H77  1  0.63706000  0.52663000  0.34976000  1
  H  H78  1  0.16141000  0.44784000  0.39669000  1
  H  H79  1  0.08101000  0.32504000  0.40064000  1
  H  H80  1  0.42215000  0.84526000  0.61483000  1
  H  H81  1  0.32692000  0.84707000  0.66134000  1
  H  H82  1  0.57295000  0.91896000  0.63469000  1
  H  H83  1  0.72790000  0.02421000  0.63815000  1
  H  H84  1  0.18483000  0.16458000  0.63207000  1
  H  H85  1  0.02827000  0.06054000  0.62897000  1
  H  H86  1  0.25752000  0.78575000  0.56780000  1
  H  H87  1  0.10605000  0.87169000  0.57633000  1
  H  H88  1  0.17781000  0.81557000  0.51435000  1
  H  H89  1  0.09321000  0.79574000  0.45278000  1
  H  H90  1  0.58244000  0.72555000  0.49682000  1
  H  H91  1  0.66310000  0.74656000  0.55942000  1
  H  H92  1  0.87436000  0.78435000  0.64139000  1
  H  H93  1  0.89177000  0.87747000  0.64110000  1
  H  H94  1  0.61992000  0.83442000  0.67626000  1
  H  H95  1  0.37410000  0.81457000  0.72551000  1
  H  H96  1  0.81216000  0.75707000  0.79808000  1
  H  H97  1  0.05747000  0.77978000  0.74967000  1
  H  H98  1  0.16517000  0.69039000  0.62137000  1
  H  H99  1  0.24589000  0.71863000  0.66199000  1
  H  H100  1  0.31137000  0.59428000  0.64641000  1
  H  H101  1  0.51001000  0.47344000  0.64998000  1
  H  H102  1  0.00323000  0.55200000  0.60325000  1
  H  H103  1  0.80512000  0.67491000  0.59947000  1
  C  C104  1  0.71466000  0.69534000  0.12403000  1
  C  C105  1  0.89720000  0.64458000  0.13340000  1
  C  C106  1  0.02203000  0.51695000  0.13143000  1
  C  C107  1  0.20974000  0.52674000  0.13413000  1
  C  C108  1  0.35493000  0.46706000  0.13591000  1
  C  C109  1  0.31721000  0.39684000  0.13489000  1
  C  C110  1  0.12771000  0.38844000  0.13250000  1
  C  C111  1  0.98145000  0.44740000  0.13070000  1
  C  C112  1  0.47813000  0.33606000  0.13708000  1
  C  C113  1  0.69648000  0.68592000  0.08347000  1
  C  C114  1  0.46007000  0.71983000  0.04099000  1
  C  C115  1  0.59555000  0.70456000  0.01096000  1
  C  C116  1  0.53574000  0.71524000  0.97624000  1
  C  C117  1  0.34333000  0.74039000  0.97107000  1
  C  C118  1  0.20829000  0.75355000  0.00146000  1
  C  C119  1  0.26563000  0.74285000  0.03611000  1
  C  C120  1  0.28150000  0.75276000  0.93409000  1
  C  C121  1  0.53784000  0.67771000  0.14678000  1
  C  C122  1  0.41254000  0.69208000  0.20943000  1
  C  C123  1  0.23004000  0.68245000  0.20227000  1
  C  C124  1  0.08114000  0.69357000  0.22991000  1
  C  C125  1  0.11154000  0.71491000  0.26454000  1
  C  C126  1  0.29586000  0.72471000  0.27104000  1
  C  C127  1  0.44560000  0.71307000  0.24394000  1
  C  C128  1  0.95401000  0.72618000  0.29398000  1
  C  C129  1  0.72653000  0.77354000  0.13258000  1
  C  C130  1  0.93860000  0.85775000  0.12157000  1
  C  C131  1  0.79933000  0.91427000  0.13669000  1
  C  C132  1  0.84434000  0.98238000  0.13914000  1
  C  C133  1  0.02678000  0.99548000  0.12729000  1
  C  C134  1  0.16644000  0.93801000  0.11293000  1
  C  C135  1  0.12332000  0.86971000  0.11029000  1
  C  C136  1  0.06160000  0.07037000  0.12989000  1
  C  C137  1  0.53597000  0.30392000  0.87595000  1
  C  C138  1  0.67795000  0.35450000  0.86675000  1
  C  C139  1  0.67236000  0.48215000  0.86854000  1
  C  C140  1  0.87253000  0.47266000  0.86572000  1
  C  C141  1  0.95945000  0.53250000  0.86396000  1
  C  C142  1  0.85019000  0.60262000  0.86502000  1
  C  C143  1  0.65009000  0.61070000  0.86747000  1
  C  C144  1  0.56132000  0.55160000  0.86934000  1
  C  C145  1  0.95182000  0.66368000  0.86288000  1
  C  C146  1  0.46755000  0.31323000  0.91655000  1
  C  C147  1  0.22121000  0.27946000  0.95899000  1
  C  C148  1  0.31031000  0.29461000  0.98922000  1
  C  C149  1  0.22651000  0.28313000  0.02387000  1
  C  C150  1  0.05482000  0.25726000  0.02886000  1
  C  C151  1  0.96432000  0.24434000  0.99826000  1
  C  C152  1  0.04558000  0.25583000  0.96369000  1
  C  C153  1  0.96769000  0.24437000  0.06578000  1
  C  C154  1  0.36587000  0.32211000  0.85285000  1
  C  C155  1  0.32035000  0.30792000  0.79009000  1
  C  C156  1  0.12122000  0.31721000  0.79720000  1
  C  C157  1  0.01108000  0.30606000  0.76957000  1
  C  C158  1  0.09720000  0.28508000  0.73489000  1
  C  C159  1  0.29771000  0.27554000  0.72840000  1
  C  C160  1  0.40885000  0.28716000  0.75556000  1
  C  C161  1  0.97948000  0.27381000  0.70553000  1
  C  C162  1  0.63299000  0.22571000  0.86730000  1
  C  C163  1  0.92017000  0.14204000  0.87743000  1
  C  C164  1  0.85109000  0.08548000  0.86262000  1
  C  C165  1  0.96561000  0.01728000  0.86045000  1
  C  C166  1  0.14917000  0.00411000  0.87233000  1
  C  C167  1  0.21838000  0.06152000  0.88649000  1
  C  C168  1  0.10535000  0.12994000  0.88884000  1
  C  C169  1  0.25945000  0.92899000  0.86999000  1
  C  C170  1  0.58913000  0.19515000  0.37579000  1
  C  C171  1  0.78200000  0.14470000  0.36666000  1
  C  C172  1  0.90677000  0.01718000  0.36851000  1
  C  C173  1  0.09697000  0.02722000  0.36593000  1
  C  C174  1  0.24456000  0.96771000  0.36411000  1
  C  C175  1  0.20664000  0.89736000  0.36494000  1
  C  C176  1  0.01498000  0.88878000  0.36712000  1
  C  C177  1  0.86629000  0.94754000  0.36903000  1
  C  C178  1  0.36989000  0.83648000  0.36279000  1
  C  C179  1  0.52916000  0.18556000  0.41630000  1
  C  C180  1  0.25084000  0.21976000  0.45889000  1
  C  C181  1  0.35658000  0.20453000  0.48890000  1
  C  C182  1  0.26240000  0.21550000  0.52365000  1
  C  C183  1  0.06491000  0.24092000  0.52888000  1
  C  C184  1  0.96007000  0.25392000  0.49849000  1
  C  C185  1  0.05157000  0.24285000  0.46383000  1
  C  C186  1  0.96610000  0.25356000  0.56586000  1
  C  C187  1  0.43647000  0.17714000  0.35272000  1
  C  C188  1  0.37320000  0.19199000  0.29005000  1
  C  C189  1  0.18364000  0.18230000  0.29714000  1
  C  C190  1  0.06212000  0.19345000  0.26951000  1
  C  C191  1  0.12674000  0.21485000  0.23487000  1
  C  C192  1  0.31759000  0.22469000  0.22845000  1
  C  C193  1  0.44042000  0.21309000  0.25556000  1
  C  C194  1  0.99888000  0.22622000  0.20530000  1
  C  C195  1  0.60920000  0.27343000  0.36742000  1
  C  C196  1  0.81052000  0.35767000  0.37852000  1
  C  C197  1  0.68617000  0.41411000  0.36343000  1
  C  C198  1  0.73314000  0.48230000  0.36109000  1
  C  C199  1  0.90350000  0.49564000  0.37301000  1
  C  C200  1  0.02906000  0.43818000  0.38734000  1
  C  C201  1  0.98380000  0.36978000  0.38988000  1
  C  C202  1  0.94081000  0.57067000  0.37023000  1
  C  C203  1  0.15803000  0.80482000  0.62420000  1
  C  C204  1  0.29074000  0.85558000  0.63329000  1
  C  C205  1  0.28997000  0.98294000  0.63134000  1
  C  C206  1  0.48766000  0.97270000  0.63408000  1
  C  C207  1  0.57493000  0.03210000  0.63584000  1
  C  C208  1  0.46844000  0.10255000  0.63483000  1
  C  C209  1  0.27062000  0.11130000  0.63240000  1
  C  C210  1  0.18170000  0.05271000  0.63054000  1
  C  C211  1  0.56886000  0.16340000  0.63705000  1
  C  C212  1  0.12891000  0.81438000  0.58368000  1
  C  C213  1  0.92788000  0.77978000  0.54100000  1
  C  C214  1  0.04843000  0.79525000  0.51106000  1
  C  C215  1  0.00072000  0.78413000  0.47626000  1
  C  C216  1  0.83424000  0.75850000  0.47080000  1
  C  C217  1  0.71213000  0.74505000  0.50110000  1
  C  C218  1  0.75745000  0.75614000  0.53585000  1
  C  C219  1  0.78767000  0.74649000  0.43350000  1
  C  C220  1  0.96456000  0.82276000  0.64729000  1
  C  C221  1  0.85412000  0.80803000  0.70998000  1
  C  C222  1  0.66196000  0.81768000  0.70288000  1
  C  C223  1  0.52427000  0.80645000  0.73051000  1
  C  C224  1  0.57588000  0.78506000  0.76513000  1
  C  C225  1  0.76998000  0.77533000  0.77160000  1
  C  C226  1  0.90811000  0.78698000  0.74447000  1
  C  C227  1  0.42908000  0.77366000  0.79449000  1
  C  C228  1  0.24836000  0.72660000  0.63255000  1
  C  C229  1  0.54460000  0.64248000  0.62147000  1
  C  C230  1  0.46152000  0.58597000  0.63652000  1
  C  C231  1  0.57386000  0.51767000  0.63871000  1
  C  C232  1  0.76939000  0.50427000  0.62674000  1
  C  C233  1  0.85192000  0.56183000  0.61257000  1
  C  C234  1  0.74121000  0.63028000  0.61015000  1
  C  C235  1  0.87899000  0.42912000  0.62916000  1
  O  O236  1  0.86932000  0.57190000  0.12912000  1
  O  O237  1  0.46608000  0.26781000  0.13459000  1
  O  O238  1  0.64023000  0.35021000  0.14178000  1
  O  O239  1  0.50260000  0.71463000  0.07642000  1
  O  O240  1  0.10838000  0.76911000  0.92880000  1
  O  O241  1  0.41611000  0.74313000  0.90709000  1
  O  O242  1  0.56906000  0.68232000  0.18430000  1
  O  O243  1  0.78602000  0.72134000  0.28927000  1
  O  O244  1  0.99677000  0.74282000  0.32612000  1
  O  O245  1  0.90595000  0.78927000  0.11643000  1
  O  O246  1  0.91775000  0.11788000  0.14004000  1
  O  O247  1  0.23461000  0.08114000  0.12176000  1
  O  O248  1  0.57268000  0.42704000  0.87089000  1
  O  O249  1  0.86855000  0.73189000  0.86540000  1
  O  O250  1  0.13269000  0.64982000  0.85819000  1
  O  O251  1  0.29395000  0.28527000  0.92357000  1
  O  O252  1  0.80500000  0.22842000  0.07100000  1
  O  O253  1  0.06576000  0.25339000  0.09292000  1
  O  O254  1  0.44140000  0.31774000  0.81538000  1
  O  O255  1  0.80220000  0.27855000  0.71058000  1
  O  O256  1  0.06919000  0.25726000  0.67324000  1
  O  O257  1  0.81613000  0.21086000  0.88192000  1
  O  O258  1  0.17024000  0.88190000  0.86024000  1
  O  O259  1  0.43549000  0.91793000  0.87794000  1
  O  O260  1  0.75113000  0.07189000  0.37090000  1
  O  O261  1  0.35536000  0.76813000  0.36524000  1
  O  O262  1  0.53676000  0.85046000  0.35819000  1
  O  O263  1  0.32825000  0.21447000  0.42342000  1
  O  O264  1  0.78797000  0.27081000  0.57115000  1
  O  O265  1  0.07370000  0.24319000  0.59292000  1
  O  O266  1  0.50487000  0.18230000  0.31516000  1
  O  O267  1  0.82616000  0.22131000  0.20981000  1
  O  O268  1  0.07381000  0.24296000  0.17323000  1
  O  O269  1  0.77321000  0.28908000  0.38350000  1
  O  O270  1  0.80644000  0.61790000  0.35997000  1
  O  O271  1  0.10567000  0.58173000  0.37823000  1
  O  O272  1  0.19025000  0.92833000  0.62912000  1
  O  O273  1  0.48878000  0.23174000  0.63460000  1
  O  O274  1  0.74517000  0.14933000  0.64179000  1
  O  O275  1  0.96423000  0.78526000  0.57651000  1
  O  O276  1  0.63167000  0.73007000  0.42736000  1
  O  O277  1  0.91515000  0.75661000  0.40708000  1
  O  O278  1  0.00112000  0.81771000  0.68484000  1
  O  O279  1  0.25671000  0.77846000  0.78951000  1
  O  O280  1  0.48708000  0.75703000  0.82673000  1
  O  O281  1  0.44395000  0.71108000  0.61648000  1
  O  O282  1  0.78099000  0.38166000  0.63855000  1
  O  O283  1  0.06322000  0.41814000  0.62171000  1
