# generated using pymatgen
data_H9C22(NO)4
_symmetry_space_group_name_H-M   'P 1'
_cell_length_a   18.37530000
_cell_length_b   34.20815000
_cell_length_c   34.20820000
_cell_angle_alpha   120.00014505
_cell_angle_beta   90.00000000
_cell_angle_gamma   90.00000000
_symmetry_Int_Tables_number   1
_chemical_formula_structural   H9C22(NO)4
_chemical_formula_sum   'H54 C132 N24 O24'
_cell_volume   18621.91095659
_cell_formula_units_Z   6
loop_
 _symmetry_equiv_pos_site_id
 _symmetry_equiv_pos_as_xyz
  1  'x, y, z'
loop_
 _atom_site_type_symbol
 _atom_site_label
 _atom_site_symmetry_multiplicity
 _atom_site_fract_x
 _atom_site_fract_y
 _atom_site_fract_z
 _atom_site_occupancy
  C  1  1  0.01121800  0.53590500  0.50297800  1
  C  2  1  0.01449100  0.48951900  0.49058100  1
  C  3  1  0.01591700  0.45591500  0.44417600  1
  C  4  1  0.00792800  0.46851000  0.41109400  1
  C  5  1  0.00147400  0.51418200  0.42272700  1
  C  6  1  0.00734600  0.54809400  0.46885500  1
  C  7  1  0.01657000  0.47846200  0.52522400  1
  C  8  1  0.01089400  0.59423800  0.48178400  1
  C  10  1  0.01141600  0.57016500  0.54947100  1
  C  11  1  0.00699800  0.55800700  0.58359900  1
  C  12  1  0.00152800  0.59192500  0.62974500  1
  C  13  1  0.00879900  0.63755200  0.64135000  1
  C  14  1  0.01737300  0.65012000  0.60827900  1
  C  15  1  0.01561200  0.61652400  0.56186900  1
  C  16  1  0.00957200  0.51184100  0.57066900  1
  C  18  1  0.01823600  0.62756700  0.52722500  1
  C  31  1  0.34460800  0.04745400  0.54345100  1
  C  32  1  0.34814000  0.08149000  0.58981100  1
  C  33  1  0.34963200  0.06875900  0.62346700  1
  C  34  1  0.34143600  0.02311100  0.61095300  1
  C  35  1  0.33478000  0.98904000  0.56531700  1
  C  36  1  0.34054400  0.00117200  0.53134000  1
  C  37  1  0.35043200  0.12716800  0.60079900  1
  C  38  1  0.34382000  0.96789700  0.48520700  1
  C  40  1  0.34470100  0.05961800  0.50914100  1
  C  41  1  0.34042400  0.10589400  0.52124400  1
  C  42  1  0.33476900  0.11801800  0.48725800  1
  C  43  1  0.34172400  0.08395600  0.44163200  1
  C  44  1  0.35026300  0.03834000  0.42915000  1
  C  45  1  0.34862200  0.02559300  0.46279200  1
  C  46  1  0.34334600  0.13917500  0.56738200  1
  C  48  1  0.35113400  0.97992400  0.45181400  1
  C  61  1  0.67799100  0.57630100  0.03271700  1
  C  62  1  0.68204600  0.58869200  0.99874200  1
  C  63  1  0.68370500  0.63510100  0.01155100  1
  C  64  1  0.67504200  0.66817700  0.05717700  1
  C  65  1  0.66790200  0.65654800  0.09117900  1
  C  66  1  0.67356500  0.61042600  0.07900400  1
  C  67  1  0.68468500  0.55404300  0.95305500  1
  C  68  1  0.67637500  0.59750800  0.11224300  1
  C  70  1  0.67796400  0.52981100  0.02048900  1
  C  71  1  0.67401800  0.49567800  0.97418400  1
  C  72  1  0.66830200  0.44953800  0.96196700  1
  C  73  1  0.67493800  0.43793700  0.99601700  1
  C  74  1  0.68311700  0.47102500  0.04167900  1
  C  75  1  0.68147400  0.51742800  0.05448200  1
  C  76  1  0.67735900  0.50860500  0.94096100  1
  C  78  1  0.68365500  0.55207700  0.10017900  1
  C  91  1  0.69396800  0.46120900  0.14247100  1
  C  92  1  0.74825800  0.42989700  0.13767100  1
  C  94  1  0.78920600  0.47740000  0.21326800  1
  C  95  1  0.73369400  0.50942500  0.22109700  1
  C  96  1  0.68564700  0.50036200  0.18524300  1
  C  98  1  0.84135700  0.48622100  0.24691600  1
  C  99  1  0.94703100  0.46240300  0.26997700  1
  C  100  1  0.94659100  0.50156500  0.31317600  1
  C  101  1  0.89219200  0.53420000  0.32154400  1
  C  104  1  0.83859600  0.52706900  0.28897600  1
  C  105  1  0.78263500  0.55861400  0.29692200  1
  C  106  1  0.73055500  0.54984500  0.26325900  1
  C  111  1  0.65939600  0.45824000  0.10398900  1
  C  112  1  0.99498200  0.50505400  0.34740900  1
  C  115  1  0.02901600  0.76072200  0.61795600  1
  C  116  1  0.08362200  0.78703800  0.64910600  1
  C  118  1  0.12380100  0.81558600  0.60184300  1
  C  119  1  0.06802000  0.79155600  0.56996900  1
  C  120  1  0.02022400  0.76462000  0.57898900  1
  C  122  1  0.17566700  0.84059400  0.59306600  1
  C  123  1  0.28129000  0.88751400  0.61679300  1
  C  124  1  0.28032600  0.89188200  0.57782300  1
  C  125  1  0.22568800  0.86775000  0.54531600  1
  C  128  1  0.17236400  0.84213800  0.55240600  1
  C  129  1  0.11616000  0.81868400  0.52100300  1
  C  130  1  0.06435200  0.79361900  0.52973300  1
  C  135  1  0.99453000  0.72517500  0.62090000  1
  C  136  1  0.32850000  0.92277600  0.57441800  1
  C  139  1  0.36146000  0.93743500  0.31867200  1
  C  140  1  0.41603000  0.94216700  0.29227100  1
  C  142  1  0.45635000  0.86643100  0.26403900  1
  C  143  1  0.40054800  0.85866900  0.28811500  1
  C  144  1  0.35269000  0.89463400  0.31492900  1
  C  146  1  0.50830700  0.83265800  0.23918100  1
  C  147  1  0.61410000  0.80943000  0.19241200  1
  C  148  1  0.61319300  0.76616600  0.18821900  1
  C  149  1  0.55847700  0.75783800  0.21234000  1
  C  152  1  0.50505300  0.79053100  0.23780600  1
  C  153  1  0.44880300  0.78265400  0.26128400  1
  C  154  1  0.39692600  0.81644800  0.28622100  1
  C  159  1  0.32688100  0.97596200  0.35412400  1
  C  160  1  0.66150200  0.73186000  0.15748800  1
  C  163  1  0.69511300  0.64479400  0.91063800  1
  C  164  1  0.74981000  0.67589500  0.91547000  1
  C  166  1  0.78980300  0.62866100  0.83961700  1
  C  167  1  0.73389700  0.59685600  0.83176600  1
  C  168  1  0.68615300  0.60588300  0.86774600  1
  C  170  1  0.84166700  0.61984900  0.80582500  1
  C  171  1  0.94750300  0.64343300  0.78267200  1
  C  172  1  0.94642800  0.60449200  0.73931700  1
  C  173  1  0.89159100  0.57208300  0.73089500  1
  C  176  1  0.83822700  0.57922600  0.76359000  1
  C  177  1  0.78187000  0.54790600  0.75562200  1
  C  178  1  0.73008100  0.55666700  0.78943500  1
  C  183  1  0.66072800  0.64771800  0.94914500  1
  C  184  1  0.99475400  0.60099200  0.70505000  1
  C  187  1  0.02681200  0.34530800  0.43436700  1
  C  188  1  0.08108600  0.31880900  0.40303600  1
  C  190  1  0.12210800  0.29068600  0.45050000  1
  C  191  1  0.06659400  0.31485200  0.48253700  1
  C  192  1  0.01852400  0.34165400  0.47350400  1
  C  194  1  0.17429800  0.26585600  0.45929300  1
  C  195  1  0.28002400  0.21902700  0.43544900  1
  C  196  1  0.27961900  0.21496100  0.47459500  1
  C  197  1  0.22520400  0.23918000  0.50723300  1
  C  200  1  0.17156100  0.26460800  0.50012300  1
  C  201  1  0.11559400  0.28817000  0.53167500  1
  C  202  1  0.06348600  0.31307400  0.52293700  1
  C  207  1  0.99220100  0.38082700  0.43142500  1
  C  208  1  0.32808100  0.18425500  0.47810200  1
  C  211  1  0.36078200  0.16958200  0.73402100  1
  C  212  1  0.41490400  0.16471700  0.76058200  1
  C  214  1  0.45615000  0.24026000  0.78871600  1
  C  215  1  0.40083100  0.24816000  0.76446400  1
  C  216  1  0.35272600  0.21236100  0.73761700  1
  C  218  1  0.50832800  0.27385900  0.81363000  1
  C  219  1  0.61379000  0.29681200  0.86068400  1
  C  220  1  0.61354000  0.34003000  0.86477000  1
  C  221  1  0.55936400  0.34846400  0.84042800  1
  C  224  1  0.50578100  0.31593800  0.81487500  1
  C  225  1  0.45002200  0.32394900  0.79120700  1
  C  226  1  0.39791900  0.29033200  0.76621800  1
  C  231  1  0.32610000  0.13112200  0.69852200  1
  C  232  1  0.66184500  0.37422800  0.89565600  1
  H  9  1  0.00374300  0.44360300  0.37801800  1
  H  17  1  0.00483700  0.66248300  0.67442800  1
  H  19  1  0.00981600  0.50197500  0.59440900  1
  H  20  1  0.02011800  0.44576400  0.51799600  1
  H  21  1  0.02238800  0.66024500  0.53445100  1
  H  22  1  0.01143800  0.60410300  0.45804600  1
  H  24  1  0.92791800  0.54017100  0.40022100  1
  H  26  1  0.08914000  0.69944200  0.62844600  1
  H  28  1  0.92720100  0.56650000  0.65234600  1
  H  30  1  0.08706200  0.40622000  0.42360000  1
  H  39  1  0.33746800  0.01497700  0.63589500  1
  H  47  1  0.33776800  0.09206200  0.41667100  1
  H  49  1  0.34353900  0.17277000  0.57720300  1
  H  50  1  0.35401800  0.15267000  0.63348100  1
  H  51  1  0.35493200  0.95442900  0.41913500  1
  H  52  1  0.34419200  0.93430500  0.47538900  1
  H  54  1  0.26120300  0.94057000  0.53950000  1
  H  56  1  0.42181800  0.00898100  0.37975000  1
  H  58  1  0.26089600  0.16633200  0.51295600  1
  H  60  1  0.42092300  0.09786100  0.67309500  1
  H  69  1  0.67108300  0.70126100  0.06533300  1
  H  77  1  0.67094800  0.40485400  0.98785500  1
  H  79  1  0.67793600  0.48486000  0.90735900  1
  H  80  1  0.68865300  0.56127200  0.92759900  1
  H  81  1  0.68717800  0.54485200  0.12565200  1
  H  82  1  0.67653700  0.62124500  0.14585000  1
  H  84  1  0.59398600  0.67919900  0.13947000  1
  H  86  1  0.75430900  0.45054800  0.07085900  1
  H  88  1  0.59487800  0.42701500  0.91329100  1
  H  90  1  0.75549800  0.65495200  0.98220600  1
  H  97  1  0.64848300  0.52434800  0.18913800  1
  H  102  1  0.75727700  0.40134300  0.10732400  1
  H  107  1  0.89123200  0.56358900  0.35188500  1
  H  108  1  0.98382700  0.43705900  0.26177700  1
  H  121  1  0.98285300  0.74465100  0.55509100  1
  H  126  1  0.09299100  0.78505600  0.67752400  1
  H  131  1  0.22434400  0.86892200  0.51604800  1
  H  132  1  0.31829000  0.90452700  0.64204200  1
  H  145  1  0.31529800  0.89077700  0.33493300  1
  H  150  1  0.42535600  0.97251700  0.29413300  1
  H  155  1  0.55716600  0.72744200  0.21126400  1
  H  156  1  0.65115000  0.81761100  0.17538100  1
  H  169  1  0.64871200  0.58201900  0.86381700  1
  H  174  1  0.75930100  0.70426900  0.94588700  1
  H  179  1  0.89016300  0.54284100  0.70043200  1
  H  180  1  0.98465300  0.66861100  0.79093400  1
  H  193  1  0.98136400  0.36173100  0.49750300  1
  H  198  1  0.09008200  0.32061600  0.37448800  1
  H  203  1  0.22426500  0.23819300  0.53660500  1
  H  204  1  0.31683800  0.20191800  0.41010600  1
  H  217  1  0.31568900  0.21630100  0.71749300  1
  H  222  1  0.42373600  0.13436200  0.75881100  1
  H  227  1  0.55854700  0.37882500  0.84142200  1
  H  228  1  0.65041500  0.28856700  0.87788000  1
  N  23  1  0.97434600  0.52441000  0.39151400  1
  N  25  1  0.03708200  0.69366400  0.62296500  1
  N  27  1  0.97391000  0.58194900  0.66101500  1
  N  29  1  0.03512500  0.41229800  0.42950700  1
  N  53  1  0.30766200  0.94765800  0.55525300  1
  N  55  1  0.36976200  0.00938300  0.38558700  1
  N  57  1  0.30737400  0.15930800  0.49722000  1
  N  59  1  0.36898400  0.09773100  0.66704400  1
  N  83  1  0.64057500  0.68784100  0.13250400  1
  N  85  1  0.70235900  0.45638900  0.07064700  1
  N  87  1  0.64108900  0.41829600  0.92059500  1
  N  89  1  0.70335500  0.64981700  0.98270300  1
  N  93  1  0.79356900  0.43908500  0.17242100  1
  N  103  1  0.89529700  0.45605400  0.23916900  1
  N  117  1  0.12867700  0.81274800  0.63997100  1
  N  127  1  0.22982400  0.86288100  0.62310000  1
  N  141  1  0.46116100  0.90731700  0.26669400  1
  N  151  1  0.56252500  0.84035200  0.21689000  1
  N  165  1  0.79482700  0.66674500  0.88060600  1
  N  175  1  0.89598500  0.64979500  0.81360100  1
  N  189  1  0.12643500  0.29324300  0.41219800  1
  N  199  1  0.22824800  0.24347800  0.42912200  1
  N  213  1  0.46028000  0.19940700  0.78618900  1
  N  223  1  0.56206800  0.26604600  0.83611900  1
  O  109  1  0.77814200  0.59786600  0.33673800  1
  O  110  1  0.67842500  0.58116100  0.27188100  1
  O  113  1  0.58987600  0.47294400  0.10794800  1
  O  114  1  0.05894800  0.48233600  0.33462900  1
  O  133  1  0.11114300  0.81956800  0.48193400  1
  O  134  1  0.01195200  0.77109200  0.49856500  1
  O  137  1  0.92483400  0.71476300  0.60641400  1
  O  138  1  0.39254800  0.93272100  0.59704800  1
  O  157  1  0.44384000  0.74278000  0.26056600  1
  O  158  1  0.34450500  0.80788400  0.30879300  1
  O  161  1  0.25723600  0.97209700  0.36474600  1
  O  162  1  0.72567500  0.74457100  0.14771200  1
  O  181  1  0.77672500  0.50887700  0.71564500  1
  O  182  1  0.67755500  0.52556500  0.78078000  1
  O  185  1  0.59098200  0.63334400  0.94517500  1
  O  186  1  0.05903500  0.62334900  0.71778900  1
  O  205  1  0.11113200  0.28757400  0.57091200  1
  O  206  1  0.01135100  0.33573700  0.55426200  1
  O  209  1  0.92271700  0.39159900  0.44620200  1
  O  210  1  0.39203100  0.17439000  0.45537300  1
  O  229  1  0.44573400  0.36378200  0.79179700  1
  O  230  1  0.34597200  0.29901800  0.74347100  1
  O  233  1  0.25663200  0.13533100  0.68788200  1
  O  234  1  0.72569000  0.36138300  0.90566000  1
