# generated using pymatgen
data_H13(C14N3)2
_symmetry_space_group_name_H-M   'P 1'
_cell_length_a   9.97540000
_cell_length_b   21.38150000
_cell_length_c   21.38150000
_cell_angle_alpha   90.00000000
_cell_angle_beta   90.00000000
_cell_angle_gamma   90.00000000
_symmetry_Int_Tables_number   1
_chemical_formula_structural   H13(C14N3)2
_chemical_formula_sum   'H26 C56 N12'
_cell_volume   4560.43907636
_cell_formula_units_Z   2
loop_
 _symmetry_equiv_pos_site_id
 _symmetry_equiv_pos_as_xyz
  1  'x, y, z'
loop_
 _atom_site_type_symbol
 _atom_site_label
 _atom_site_symmetry_multiplicity
 _atom_site_fract_x
 _atom_site_fract_y
 _atom_site_fract_z
 _atom_site_occupancy
  C  1  1  0.00232600  0.88566400  0.84007800  1
  C  2  1  0.00587400  0.84011400  0.88566400  1
  C  3  1  0.00453100  0.86934600  0.94413200  1
  C  5  1  0.00359800  0.94415400  0.86925600  1
  C  6  1  0.00350800  0.00270900  0.83734200  1
  C  7  1  0.00498200  0.06190100  0.86773600  1
  C  9  1  0.00487200  0.13623600  0.94195000  1
  C  10  1  0.00411900  0.16574700  0.88366200  1
  C  11  1  0.00704700  0.12014500  0.83814100  1
  C  12  1  0.00401900  0.16663100  0.00113200  1
  C  13  1  0.00411100  0.13470200  0.05967500  1
  C  15  1  0.00391800  0.05991700  0.13452400  1
  C  16  1  0.00260600  0.11840200  0.16372200  1
  C  17  1  0.00547200  0.16394900  0.11813500  1
  C  18  1  0.00403100  0.00139900  0.16650000  1
  C  19  1  0.00314800  0.94219400  0.13615100  1
  C  21  1  0.00311700  0.86791900  0.06188200  1
  C  22  1  0.00100100  0.83837200  0.12014700  1
  C  23  1  0.00397100  0.88393000  0.16571400  1
  C  24  1  0.00459200  0.83747700  0.00271400  1
  C  25  1  0.00833900  0.77046100  0.00226900  1
  C  26  1  0.12191400  0.73792400  0.02455300  1
  C  27  1  0.12435600  0.67214700  0.02578000  1
  C  28  1  0.01715100  0.63589200  0.00157000  1
  C  29  1  0.90363100  0.66933800  0.97935600  1
  C  30  1  0.89816400  0.73510800  0.98059200  1
  C  31  1  0.00737800  0.00193200  0.23351600  1
  C  32  1  0.12135700  0.02395900  0.26590800  1
  C  33  1  0.12386400  0.02551300  0.33168500  1
  C  34  1  0.01634000  0.00182400  0.36809400  1
  C  35  1  0.90236000  0.97994400  0.33476200  1
  C  36  1  0.89682600  0.98089600  0.26899500  1
  C  37  1  0.00051100  0.23364600  0.00161400  1
  C  38  1  0.88648100  0.26599300  0.02364800  1
  C  39  1  0.88388200  0.33177000  0.02523200  1
  C  40  1  0.99135800  0.36822700  0.00157600  1
  C  41  1  0.10534800  0.33493400  0.97963200  1
  C  42  1  0.11096200  0.26916900  0.98054200  1
  C  43  1  0.99961800  0.00221600  0.77032600  1
  C  44  1  0.88596900  0.02448500  0.73783400  1
  C  45  1  0.10972800  0.98054000  0.73493000  1
  C  46  1  0.10413400  0.97930000  0.66916300  1
  C  47  1  0.99057600  0.00154000  0.63575800  1
  C  48  1  0.88341100  0.02571900  0.67205800  1
  C  75  1  0.98959400  0.00159100  0.56834200  1
  C  77  1  0.13083100  0.00039800  0.47582800  1
  C  78  1  0.01747200  0.00183200  0.43552200  1
  C  80  1  0.87622400  0.00050100  0.52805000  1
  C  81  1  0.75200700  0.99354200  0.54494600  1
  C  82  1  0.25506600  0.99354600  0.45892600  1
  C  85  1  0.99019600  0.43565800  0.00166800  1
  C  87  1  0.13143400  0.52819000  0.00034200  1
  C  88  1  0.01807300  0.56848200  0.00155400  1
  C  90  1  0.87683700  0.47597200  0.00033500  1
  C  91  1  0.75254200  0.45908300  0.99370600  1
  C  92  1  0.25562800  0.54509300  0.99329400  1
  H  49  1  0.80264400  0.04638600  0.65142800  1
  H  50  1  0.80553100  0.04186500  0.76198600  1
  H  51  1  0.18540600  0.96166800  0.64591000  1
  H  52  1  0.19413800  0.96446000  0.75691900  1
  H  53  1  0.00047000  0.87633600  0.79323800  1
  H  54  1  0.00776700  0.79326600  0.87637800  1
  H  55  1  0.00406000  0.96334800  0.96324400  1
  H  56  1  0.00395800  0.04070800  0.04054400  1
  H  57  1  0.00867000  0.12912200  0.79122600  1
  H  58  1  0.00262600  0.21263900  0.87457900  1
  H  59  1  0.80571100  0.24173400  0.04053500  1
  H  60  1  0.80269300  0.35226500  0.04565600  1
  H  61  1  0.19558600  0.24728100  0.96456400  1
  H  62  1  0.18686000  0.35825900  0.96234600  1
  H  63  1  0.00744900  0.21080900  0.12738600  1
  H  64  1  0.00091200  0.12769500  0.21057600  1
  H  65  1  0.99939800  0.79146500  0.12916400  1
  H  66  1  0.00536300  0.87488800  0.21261400  1
  H  67  1  0.20224500  0.04076100  0.24167600  1
  H  68  1  0.20512400  0.04583100  0.35222500  1
  H  69  1  0.81225800  0.96490500  0.24707300  1
  H  70  1  0.82081900  0.96264200  0.35805800  1
  H  71  1  0.81378100  0.75712700  0.96452200  1
  H  72  1  0.82232400  0.64611000  0.96171500  1
  H  73  1  0.20509300  0.65147500  0.04643400  1
  H  74  1  0.20238800  0.76204000  0.04194400  1
  N  4  1  0.00407900  0.93158800  0.93151200  1
  N  8  1  0.00495000  0.07411200  0.92983700  1
  N  14  1  0.00398800  0.07246100  0.07227400  1
  N  20  1  0.00315700  0.93002900  0.07403700  1
  N  76  1  0.11028900  0.00054800  0.53853600  1
  N  79  1  0.89679400  0.00080000  0.46534800  1
  N  83  1  0.36532700  0.98709700  0.44486300  1
  N  84  1  0.64178700  0.98700100  0.55903800  1
  N  86  1  0.11087100  0.46548800  0.00058000  1
  N  89  1  0.89736900  0.53868600  0.00058000  1
  N  93  1  0.36581800  0.55919900  0.98667200  1
  N  94  1  0.64221900  0.44504000  0.98744800  1
