# generated using pymatgen
data_GdH9(C3O)6
_symmetry_space_group_name_H-M   'P 1'
_cell_length_a   14.80454000
_cell_length_b   22.87473000
_cell_length_c   22.88144000
_cell_angle_alpha   83.98038000
_cell_angle_beta   71.14135000
_cell_angle_gamma   71.15326000
_symmetry_Int_Tables_number   1
_chemical_formula_structural   GdH9(C3O)6
_chemical_formula_sum   'Gd16 H144 C288 O96'
_cell_volume   6939.68931330
_cell_formula_units_Z   16
loop_
 _symmetry_equiv_pos_site_id
 _symmetry_equiv_pos_as_xyz
  1  'x, y, z'
loop_
 _atom_site_type_symbol
 _atom_site_label
 _atom_site_symmetry_multiplicity
 _atom_site_fract_x
 _atom_site_fract_y
 _atom_site_fract_z
 _atom_site_occupancy
  Gd  Gd0  1  0.79361000  0.79323000  0.25772000  1
  Gd  Gd1  1  0.52499000  0.81315000  0.25332000  1
  Gd  Gd2  1  0.84510000  0.20652000  0.74255000  1
  Gd  Gd3  1  0.59135000  0.18567000  0.74669000  1
  Gd  Gd4  1  0.80073000  0.24191000  0.29349000  1
  Gd  Gd5  1  0.52684000  0.24673000  0.31402000  1
  Gd  Gd6  1  0.33762000  0.75727000  0.70651000  1
  Gd  Gd7  1  0.08800000  0.75292000  0.68547000  1
  Gd  Gd8  1  0.29373000  0.25761000  0.79353000  1
  Gd  Gd9  1  0.02471000  0.25260000  0.81419000  1
  Gd  Gd10  1  0.34503000  0.74212000  0.20653000  1
  Gd  Gd11  1  0.09123000  0.74653000  0.18542000  1
  Gd  Gd12  1  0.30135000  0.29267000  0.24176000  1
  Gd  Gd13  1  0.02745000  0.31316000  0.24693000  1
  Gd  Gd14  1  0.83775000  0.70650000  0.75822000  1
  Gd  Gd15  1  0.58863000  0.68563000  0.75331000  1
  H  H16  1  0.59519000  0.00258000  0.33147000  1
  H  H17  1  0.49458000  0.11149000  0.32531000  1
  H  H18  1  0.43175000  0.12797000  0.12872000  1
  H  H19  1  0.46832000  0.05436000  0.04730000  1
  H  H20  1  0.57228000  0.94421000  0.05376000  1
  H  H21  1  0.63034000  0.90887000  0.14382000  1
  H  H22  1  0.75318000  0.49066000  0.29619000  1
  H  H23  1  0.64739000  0.60052000  0.29651000  1
  H  H24  1  0.82935000  0.69096000  0.11821000  1
  H  H25  1  0.97915000  0.65065000  0.02892000  1
  H  H26  1  0.07831000  0.53926000  0.02370000  1
  H  H27  1  0.02633000  0.46782000  0.10777000  1
  H  H28  1  0.65323000  0.82537000  0.45274000  1
  H  H29  1  0.64762000  0.79587000  0.56170000  1
  H  H30  1  0.55584000  0.61016000  0.59662000  1
  H  H31  1  0.52449000  0.54286000  0.53273000  1
  H  H32  1  0.53311000  0.57063000  0.42303000  1
  H  H33  1  0.56953000  0.66660000  0.37829000  1
  H  H34  1  0.93056000  0.99705000  0.66860000  1
  H  H35  1  0.93294000  0.88807000  0.67446000  1
  H  H36  1  0.68936000  0.87110000  0.87063000  1
  H  H37  1  0.57071000  0.94444000  0.95209000  1
  H  H38  1  0.57047000  0.05473000  0.94586000  1
  H  H39  1  0.68312000  0.09035000  0.85599000  1
  H  H40  1  0.54173000  0.50815000  0.70301000  1
  H  H41  1  0.54492000  0.39836000  0.70324000  1
  H  H42  1  0.63816000  0.30829000  0.88174000  1
  H  H43  1  0.65849000  0.34869000  0.97102000  1
  H  H44  1  0.64170000  0.46011000  0.97599000  1
  H  H45  1  0.60365000  0.53127000  0.89143000  1
  H  H46  1  0.93121000  0.17388000  0.54830000  1
  H  H47  1  0.00502000  0.20244000  0.43886000  1
  H  H48  1  0.76355000  0.38819000  0.40331000  1
  H  H49  1  0.60127000  0.45581000  0.46684000  1
  H  H50  1  0.52720000  0.42833000  0.57650000  1
  H  H51  1  0.61438000  0.33255000  0.62179000  1
  H  H52  1  0.67700000  0.16879000  0.50251000  1
  H  H53  1  0.57124000  0.17433000  0.61165000  1
  H  H54  1  0.31018000  0.37023000  0.62904000  1
  H  H55  1  0.26449000  0.45205000  0.55601000  1
  H  H56  1  0.37392000  0.44617000  0.44563000  1
  H  H57  1  0.52212000  0.35640000  0.40970000  1
  H  H58  1  0.79912000  0.20381000  0.99125000  1
  H  H59  1  0.69272000  0.20377000  0.10086000  1
  H  H60  1  0.69673000  0.38217000  0.19112000  1
  H  H61  1  0.75769000  0.47137000  0.15064000  1
  H  H62  1  0.85190000  0.47643000  0.03924000  1
  H  H63  1  0.88465000  0.39190000  0.96814000  1
  H  H64  1  0.85330000  0.04762000  0.32597000  1
  H  H65  1  0.95696000  0.93868000  0.29671000  1
  H  H66  1  0.90187000  0.90368000  0.11061000  1
  H  H67  1  0.80755000  0.96741000  0.04286000  1
  H  H68  1  0.70585000  0.07704000  0.07041000  1
  H  H69  1  0.69606000  0.12182000  0.16677000  1
  H  H70  1  0.34980000  0.83117000  0.49693000  1
  H  H71  1  0.35775000  0.82529000  0.38800000  1
  H  H72  1  0.30990000  0.62909000  0.37146000  1
  H  H73  1  0.27336000  0.54738000  0.44489000  1
  H  H74  1  0.26757000  0.55356000  0.55504000  1
  H  H75  1  0.29020000  0.64358000  0.59051000  1
  H  H76  1  0.99542000  0.79578000  0.00825000  1
  H  H77  1  0.99888000  0.79616000  0.89842000  1
  H  H78  1  0.27130000  0.61796000  0.80802000  1
  H  H79  1  0.38100000  0.52873000  0.84830000  1
  H  H80  1  0.36807000  0.52299000  0.95987000  1
  H  H81  1  0.24444000  0.60704000  0.03133000  1
  H  H82  1  0.22949000  0.95223000  0.67366000  1
  H  H83  1  0.19404000  0.06139000  0.70289000  1
  H  H84  1  0.91690000  0.09599000  0.88833000  1
  H  H85  1  0.81876000  0.03203000  0.95586000  1
  H  H86  1  0.85518000  0.92225000  0.92839000  1
  H  H87  1  0.98730000  0.87745000  0.83234000  1
  H  H88  1  0.09492000  0.33166000  0.00299000  1
  H  H89  1  0.99420000  0.32549000  0.11188000  1
  H  H90  1  0.93066000  0.12908000  0.12829000  1
  H  H91  1  0.96792000  0.04737000  0.05483000  1
  H  H92  1  0.07224000  0.05373000  0.94473000  1
  H  H93  1  0.13016000  0.14383000  0.90936000  1
  H  H94  1  0.25300000  0.29622000  0.49130000  1
  H  H95  1  0.14651000  0.29641000  0.60083000  1
  H  H96  1  0.32872000  0.11849000  0.69161000  1
  H  H97  1  0.47848000  0.02917000  0.65149000  1
  H  H98  1  0.57736000  0.02357000  0.54001000  1
  H  H99  1  0.52560000  0.10772000  0.46852000  1
  H  H100  1  0.15197000  0.45269000  0.82641000  1
  H  H101  1  0.14605000  0.56175000  0.79676000  1
  H  H102  1  0.05537000  0.59580000  0.61078000  1
  H  H103  1  0.02498000  0.53154000  0.54342000  1
  H  H104  1  0.03403000  0.42180000  0.57126000  1
  H  H105  1  0.06975000  0.37736000  0.66757000  1
  H  H106  1  0.42995000  0.66794000  0.99723000  1
  H  H107  1  0.43269000  0.67392000  0.88815000  1
  H  H108  1  0.18994000  0.87031000  0.87092000  1
  H  H109  1  0.07146000  0.95196000  0.94416000  1
  H  H110  1  0.07076000  0.94565000  0.05450000  1
  H  H111  1  0.18289000  0.85566000  0.09027000  1
  H  H112  1  0.04138000  0.70306000  0.50812000  1
  H  H113  1  0.04495000  0.70310000  0.39831000  1
  H  H114  1  0.13831000  0.88177000  0.30830000  1
  H  H115  1  0.15841000  0.97109000  0.34878000  1
  H  H116  1  0.14159000  0.97599000  0.46018000  1
  H  H117  1  0.10345000  0.89138000  0.53131000  1
  H  H118  1  0.43197000  0.54743000  0.17385000  1
  H  H119  1  0.50521000  0.43806000  0.20259000  1
  H  H120  1  0.26323000  0.40297000  0.38829000  1
  H  H121  1  0.10134000  0.46684000  0.45595000  1
  H  H122  1  0.02787000  0.57655000  0.42837000  1
  H  H123  1  0.11517000  0.62153000  0.33237000  1
  H  H124  1  0.17800000  0.50191000  0.16916000  1
  H  H125  1  0.07199000  0.61095000  0.17446000  1
  H  H126  1  0.81066000  0.62831000  0.37041000  1
  H  H127  1  0.76495000  0.55514000  0.45212000  1
  H  H128  1  0.87442000  0.44477000  0.44616000  1
  H  H129  1  0.02274000  0.40900000  0.35652000  1
  H  H130  1  0.29931000  0.99017000  0.20393000  1
  H  H131  1  0.19395000  0.09991000  0.20339000  1
  H  H132  1  0.19711000  0.19024000  0.38186000  1
  H  H133  1  0.25809000  0.14996000  0.47110000  1
  H  H134  1  0.35286000  0.03863000  0.47612000  1
  H  H135  1  0.38529000  0.96733000  0.39190000  1
  H  H136  1  0.35422000  0.32517000  0.04815000  1
  H  H137  1  0.45788000  0.29601000  0.93917000  1
  H  H138  1  0.40227000  0.11008000  0.90378000  1
  H  H139  1  0.30740000  0.04249000  0.96745000  1
  H  H140  1  0.20500000  0.07030000  0.07689000  1
  H  H141  1  0.19568000  0.16648000  0.12173000  1
  H  H142  1  0.85000000  0.49715000  0.83128000  1
  H  H143  1  0.85805000  0.38815000  0.82559000  1
  H  H144  1  0.80996000  0.37128000  0.62950000  1
  H  H145  1  0.77351000  0.44461000  0.54776000  1
  H  H146  1  0.76774000  0.55480000  0.55378000  1
  H  H147  1  0.79051000  0.59039000  0.64370000  1
  H  H148  1  0.49464000  0.00875000  0.79602000  1
  H  H149  1  0.49756000  0.89901000  0.79685000  1
  H  H150  1  0.76981000  0.80760000  0.61911000  1
  H  H151  1  0.87993000  0.84734000  0.52964000  1
  H  H152  1  0.86827000  0.95873000  0.52362000  1
  H  H153  1  0.74515000  0.03066000  0.60742000  1
  H  H154  1  0.72964000  0.67414000  0.95233000  1
  H  H155  1  0.69461000  0.70302000  0.06149000  1
  H  H156  1  0.41706000  0.88837000  0.09701000  1
  H  H157  1  0.31823000  0.95592000  0.03344000  1
  H  H158  1  0.35400000  0.92863000  0.92372000  1
  H  H159  1  0.48621000  0.83279000  0.87856000  1
  C  C160  1  0.59557000  0.97752000  0.24400000  1
  C  C161  1  0.57041000  0.01882000  0.29119000  1
  C  C162  1  0.51464000  0.08055000  0.28713000  1
  C  C163  1  0.48539000  0.10315000  0.23504000  1
  C  C164  1  0.50661000  0.06156000  0.18579000  1
  C  C165  1  0.47471000  0.08022000  0.13254000  1
  C  C166  1  0.49647000  0.03870000  0.08653000  1
  C  C167  1  0.55386000  0.97666000  0.09050000  1
  C  C168  1  0.58660000  0.95669000  0.14123000  1
  C  C169  1  0.56279000  0.99736000  0.19065000  1
  C  C170  1  0.65882000  0.91380000  0.25267000  1
  C  C171  1  0.43587000  0.17064000  0.23334000  1
  C  C172  1  0.86519000  0.49795000  0.21200000  1
  C  C173  1  0.77616000  0.52159000  0.25907000  1
  C  C174  1  0.71760000  0.58355000  0.25975000  1
  C  C175  1  0.74995000  0.62430000  0.21480000  1
  C  C176  1  0.83999000  0.60242000  0.16468000  1
  C  C177  1  0.87205000  0.64219000  0.11587000  1
  C  C178  1  0.95597000  0.61971000  0.06603000  1
  C  C179  1  0.01192000  0.55644000  0.06310000  1
  C  C180  1  0.98345000  0.51642000  0.10976000  1
  C  C181  1  0.89742000  0.53761000  0.16202000  1
  C  C182  1  0.92153000  0.43141000  0.21897000  1
  C  C183  1  0.68487000  0.69013000  0.22194000  1
  C  C184  1  0.60993000  0.74955000  0.43673000  1
  C  C185  1  0.63333000  0.78429000  0.47274000  1
  C  C186  1  0.63028000  0.76771000  0.53389000  1
  C  C187  1  0.60261000  0.71614000  0.55937000  1
  C  C188  1  0.58146000  0.67755000  0.52394000  1
  C  C189  1  0.55895000  0.62250000  0.54888000  1
  C  C190  1  0.54229000  0.58465000  0.51297000  1
  C  C191  1  0.54746000  0.60036000  0.45087000  1
  C  C192  1  0.56806000  0.65388000  0.42553000  1
  C  C193  1  0.58548000  0.69424000  0.46089000  1
  C  C194  1  0.61358000  0.77326000  0.37319000  1
  C  C195  1  0.59518000  0.70358000  0.62538000  1
  C  C196  1  0.81766000  0.02201000  0.75588000  1
  C  C197  1  0.88151000  0.98078000  0.70873000  1
  C  C198  1  0.88362000  0.91899000  0.71262000  1
  C  C199  1  0.82462000  0.89634000  0.76453000  1
  C  C200  1  0.75473000  0.93775000  0.81376000  1
  C  C201  1  0.68824000  0.91888000  0.86688000  1
  C  C202  1  0.62229000  0.96027000  0.91293000  1
  C  C203  1  0.62133000  0.02237000  0.90910000  1
  C  C204  1  0.68477000  0.04251000  0.85848000  1
  C  C205  1  0.75132000  0.00197000  0.80906000  1
  C  C206  1  0.82524000  0.08590000  0.74744000  1
  C  C207  1  0.84088000  0.82888000  0.76630000  1
  C  C208  1  0.57565000  0.50112000  0.78760000  1
  C  C209  1  0.55778000  0.47735000  0.74039000  1
  C  C210  1  0.56156000  0.41540000  0.73991000  1
  C  C211  1  0.58934000  0.37479000  0.78505000  1
  C  C212  1  0.60722000  0.39676000  0.83519000  1
  C  C213  1  0.62996000  0.35705000  0.88409000  1
  C  C214  1  0.64150000  0.37963000  0.93392000  1
  C  C215  1  0.63170000  0.44287000  0.93667000  1
  C  C216  1  0.61036000  0.48278000  0.88983000  1
  C  C217  1  0.59739000  0.46156000  0.83770000  1
  C  C218  1  0.57162000  0.56780000  0.78083000  1
  C  C219  1  0.59766000  0.30889000  0.77794000  1
  C  C220  1  0.79615000  0.24940000  0.56363000  1
  C  C221  1  0.89030000  0.21458000  0.52784000  1
  C  C222  1  0.93174000  0.23072000  0.46649000  1
  C  C223  1  0.87801000  0.28210000  0.44082000  1
  C  C224  1  0.78306000  0.32090000  0.47615000  1
  C  C225  1  0.73092000  0.37596000  0.45102000  1
  C  C226  1  0.64068000  0.41402000  0.48679000  1
  C  C227  1  0.59913000  0.39848000  0.54890000  1
  C  C228  1  0.64759000  0.34502000  0.57448000  1
  C  C229  1  0.74058000  0.30450000  0.53926000  1
  C  C230  1  0.76021000  0.22564000  0.62713000  1
  C  C231  1  0.92357000  0.29509000  0.37485000  1
  C  C232  1  0.58871000  0.25608000  0.47783000  1
  C  C233  1  0.61175000  0.20886000  0.51898000  1
  C  C234  1  0.55254000  0.21255000  0.58081000  1
  C  C235  1  0.47066000  0.26427000  0.60353000  1
  C  C236  1  0.44198000  0.31368000  0.56227000  1
  C  C237  1  0.35671000  0.36676000  0.58128000  1
  C  C238  1  0.33189000  0.41295000  0.54003000  1
  C  C239  1  0.39266000  0.40932000  0.47790000  1
  C  C240  1  0.47619000  0.35875000  0.45758000  1
  C  C241  1  0.50245000  0.30921000  0.49801000  1
  C  C242  1  0.66003000  0.24775000  0.41397000  1
  C  C243  1  0.41900000  0.26549000  0.67086000  1
  C  C244  1  0.82710000  0.28796000  0.99847000  1
  C  C245  1  0.78475000  0.24101000  0.02213000  1
  C  C246  1  0.72639000  0.24049000  0.08400000  1
  C  C247  1  0.71376000  0.28548000  0.12472000  1
  C  C248  1  0.75393000  0.33555000  0.10275000  1
  C  C249  1  0.73721000  0.38445000  0.14237000  1
  C  C250  1  0.77153000  0.43424000  0.11976000  1
  C  C251  1  0.82481000  0.43704000  0.05653000  1
  C  C252  1  0.84321000  0.39022000  0.01668000  1
  C  C253  1  0.80913000  0.33806000  0.03801000  1
  C  C254  1  0.89071000  0.28079000  0.93204000  1
  C  C255  1  0.65640000  0.27821000  0.19069000  1
  C  C256  1  0.79419000  0.06337000  0.25018000  1
  C  C257  1  0.85359000  0.02744000  0.28495000  1
  C  C258  1  0.91198000  0.96629000  0.26839000  1
  C  C259  1  0.91027000  0.94071000  0.21675000  1
  C  C260  1  0.85383000  0.97623000  0.17809000  1
  C  C261  1  0.85699000  0.95136000  0.12285000  1
  C  C262  1  0.80490000  0.98725000  0.08476000  1
  C  C263  1  0.74763000  0.04931000  0.10040000  1
  C  C264  1  0.74209000  0.07460000  0.15415000  1
  C  C265  1  0.79440000  0.03922000  0.19475000  1
  C  C266  1  0.73392000  0.12680000  0.27409000  1
  C  C267  1  0.96899000  0.87470000  0.20363000  1
  C  C268  1  0.32368000  0.74397000  0.52207000  1
  C  C269  1  0.34070000  0.79105000  0.48073000  1
  C  C270  1  0.34657000  0.78714000  0.41899000  1
  C  C271  1  0.33908000  0.73529000  0.39644000  1
  C  C272  1  0.31863000  0.68598000  0.43793000  1
  C  C273  1  0.30529000  0.63277000  0.41919000  1
  C  C274  1  0.28575000  0.58662000  0.46063000  1
  C  C275  1  0.28126000  0.59044000  0.52266000  1
  C  C276  1  0.29394000  0.64117000  0.54272000  1
  C  C277  1  0.31065000  0.69070000  0.50212000  1
  C  C278  1  0.32251000  0.75252000  0.58597000  1
  C  C279  1  0.35616000  0.73388000  0.32905000  1
  C  C280  1  0.11362000  0.71111000  0.00101000  1
  C  C281  1  0.04868000  0.75850000  0.97734000  1
  C  C282  1  0.05197000  0.75927000  0.91541000  1
  C  C283  1  0.12488000  0.71423000  0.87477000  1
  C  C284  1  0.19288000  0.66398000  0.89665000  1
  C  C285  1  0.26498000  0.61539000  0.85683000  1
  C  C286  1  0.32644000  0.56556000  0.87936000  1
  C  C287  1  0.31884000  0.56239000  0.94268000  1
  C  C288  1  0.25023000  0.60892000  0.98272000  1
  C  C289  1  0.18530000  0.66110000  0.96147000  1
  C  C290  1  0.10305000  0.71799000  0.06755000  1
  C  C291  1  0.12628000  0.72164000  0.80887000  1
  C  C292  1  0.11004000  0.93639000  0.74908000  1
  C  C293  1  0.16818000  0.97244000  0.71445000  1
  C  C294  1  0.14840000  0.03363000  0.73099000  1
  C  C295  1  0.06903000  0.05894000  0.78246000  1
  C  C296  1  0.00951000  0.02337000  0.82099000  1
  C  C297  1  0.93226000  0.04825000  0.87607000  1
  C  C298  1  0.87806000  0.01226000  0.91404000  1
  C  C299  1  0.89906000  0.95010000  0.89845000  1
  C  C300  1  0.97293000  0.92480000  0.84487000  1
  C  C301  1  0.03028000  0.96033000  0.80434000  1
  C  C302  1  0.13811000  0.87287000  0.72522000  1
  C  C303  1  0.04891000  0.12474000  0.79582000  1
  C  C304  1  0.09524000  0.24414000  0.97789000  1
  C  C305  1  0.07011000  0.29136000  0.01919000  1
  C  C306  1  0.01426000  0.28732000  0.08090000  1
  C  C307  1  0.98457000  0.23536000  0.10347000  1
  C  C308  1  0.00589000  0.18605000  0.06194000  1
  C  C309  1  0.97396000  0.13278000  0.08061000  1
  C  C310  1  0.99601000  0.08664000  0.03915000  1
  C  C311  1  0.05360000  0.09054000  0.97715000  1
  C  C312  1  0.08627000  0.14131000  0.95716000  1
  C  C313  1  0.06234000  0.19081000  0.99778000  1
  C  C314  1  0.15865000  0.25265000  0.91416000  1
  C  C315  1  0.93428000  0.23396000  0.17089000  1
  C  C316  1  0.36478000  0.21197000  0.49857000  1
  C  C317  1  0.27567000  0.25898000  0.52218000  1
  C  C318  1  0.21673000  0.25961000  0.58406000  1
  C  C319  1  0.24898000  0.21469000  0.62487000  1
  C  C320  1  0.33915000  0.16465000  0.60301000  1
  C  C321  1  0.37136000  0.11600000  0.64285000  1
  C  C322  1  0.45527000  0.06614000  0.62044000  1
  C  C323  1  0.51112000  0.06305000  0.55716000  1
  C  C324  1  0.48268000  0.10967000  0.51710000  1
  C  C325  1  0.39673000  0.16195000  0.53825000  1
  C  C326  1  0.42115000  0.21902000  0.43205000  1
  C  C327  1  0.18440000  0.22178000  0.69083000  1
  C  C328  1  0.10902000  0.43645000  0.75063000  1
  C  C329  1  0.13207000  0.47267000  0.78534000  1
  C  C330  1  0.12889000  0.53384000  0.76861000  1
  C  C331  1  0.10155000  0.55905000  0.71690000  1
  C  C332  1  0.08075000  0.52335000  0.67837000  1
  C  C333  1  0.05862000  0.54806000  0.62319000  1
  C  C334  1  0.04249000  0.51191000  0.58530000  1
  C  C335  1  0.04786000  0.44978000  0.60111000  1
  C  C336  1  0.06804000  0.42465000  0.65480000  1
  C  C337  1  0.08487000  0.46029000  0.69520000  1
  C  C338  1  0.11335000  0.37292000  0.77461000  1
  C  C339  1  0.09471000  0.62494000  0.70365000  1
  C  C340  1  0.31739000  0.75547000  0.02206000  1
  C  C341  1  0.38114000  0.70817000  0.98093000  1
  C  C342  1  0.38344000  0.71206000  0.91912000  1
  C  C343  1  0.32467000  0.76399000  0.89638000  1
  C  C344  1  0.25486000  0.81335000  0.93767000  1
  C  C345  1  0.18870000  0.86659000  0.91871000  1
  C  C346  1  0.12283000  0.91271000  0.96004000  1
  C  C347  1  0.12159000  0.90885000  0.02218000  1
  C  C348  1  0.18473000  0.85815000  0.04240000  1
  C  C349  1  0.25125000  0.80867000  0.00192000  1
  C  C350  1  0.32510000  0.74728000  0.08590000  1
  C  C351  1  0.34082000  0.76545000  0.82898000  1
  C  C352  1  0.07517000  0.78767000  0.50109000  1
  C  C353  1  0.05749000  0.74041000  0.47728000  1
  C  C354  1  0.06145000  0.73986000  0.41532000  1
  C  C355  1  0.08915000  0.78505000  0.37474000  1
  C  C356  1  0.10706000  0.83520000  0.39674000  1
  C  C357  1  0.12988000  0.88412000  0.35708000  1
  C  C358  1  0.14138000  0.93396000  0.37969000  1
  C  C359  1  0.13154000  0.93668000  0.44293000  1
  C  C360  1  0.11018000  0.88982000  0.48281000  1
  C  C361  1  0.09712000  0.83774000  0.46155000  1
  C  C362  1  0.07103000  0.78081000  0.56775000  1
  C  C363  1  0.09759000  0.77792000  0.30883000  1
  C  C364  1  0.29641000  0.56299000  0.24909000  1
  C  C365  1  0.39064000  0.52708000  0.21446000  1
  C  C366  1  0.43192000  0.46576000  0.23078000  1
  C  C367  1  0.37803000  0.44020000  0.28219000  1
  C  C368  1  0.28310000  0.47566000  0.32084000  1
  C  C369  1  0.23086000  0.45070000  0.37599000  1
  C  C370  1  0.14082000  0.48664000  0.41408000  1
  C  C371  1  0.09959000  0.54879000  0.39845000  1
  C  C372  1  0.14809000  0.57418000  0.34487000  1
  C  C373  1  0.24082000  0.53875000  0.30428000  1
  C  C374  1  0.26065000  0.62660000  0.22537000  1
  C  C375  1  0.42332000  0.37430000  0.29544000  1
  C  C376  1  0.08956000  0.47717000  0.25629000  1
  C  C377  1  0.11256000  0.51838000  0.20915000  1
  C  C378  1  0.05318000  0.58021000  0.21276000  1
  C  C379  1  0.97112000  0.60299000  0.26442000  1
  C  C380  1  0.94255000  0.56162000  0.31380000  1
  C  C381  1  0.85722000  0.58054000  0.36687000  1
  C  C382  1  0.83240000  0.53924000  0.41304000  1
  C  C383  1  0.89320000  0.47712000  0.40940000  1
  C  C384  1  0.97682000  0.45688000  0.35887000  1
  C  C385  1  0.00314000  0.49735000  0.30936000  1
  C  C386  1  0.16062000  0.41318000  0.24786000  1
  C  C387  1  0.91920000  0.67041000  0.26556000  1
  C  C388  1  0.32744000  0.99754000  0.28797000  1
  C  C389  1  0.28514000  0.02111000  0.24101000  1
  C  C390  1  0.22724000  0.08304000  0.24026000  1
  C  C391  1  0.21473000  0.12376000  0.28520000  1
  C  C392  1  0.25454000  0.10182000  0.33539000  1
  C  C393  1  0.23768000  0.14151000  0.38423000  1
  C  C394  1  0.27204000  0.11903000  0.43400000  1
  C  C395  1  0.32553000  0.05582000  0.43682000  1
  C  C396  1  0.34380000  0.01585000  0.39014000  1
  C  C397  1  0.30960000  0.03707000  0.33801000  1
  C  C398  1  0.39133000  0.93122000  0.28075000  1
  C  C399  1  0.15695000  0.18964000  0.27796000  1
  C  C400  1  0.29453000  0.24955000  0.06359000  1
  C  C401  1  0.35423000  0.28428000  0.02788000  1
  C  C402  1  0.41260000  0.26781000  0.96673000  1
  C  C403  1  0.41062000  0.21633000  0.94101000  1
  C  C404  1  0.35405000  0.17764000  0.97631000  1
  C  C405  1  0.35710000  0.12244000  0.95140000  1
  C  C406  1  0.30476000  0.08442000  0.98723000  1
  C  C407  1  0.24719000  0.10013000  0.04922000  1
  C  C408  1  0.24185000  0.15379000  0.07457000  1
  C  C409  1  0.29453000  0.19427000  0.03928000  1
  C  C410  1  0.23399000  0.27322000  0.12701000  1
  C  C411  1  0.46927000  0.20380000  0.87495000  1
  C  C412  1  0.82425000  0.52208000  0.74405000  1
  C  C413  1  0.84099000  0.48083000  0.79121000  1
  C  C414  1  0.84679000  0.41907000  0.78742000  1
  C  C415  1  0.83926000  0.39642000  0.73566000  1
  C  C416  1  0.81883000  0.43784000  0.68629000  1
  C  C417  1  0.80542000  0.41903000  0.63315000  1
  C  C418  1  0.78592000  0.46041000  0.58695000  1
  C  C419  1  0.78150000  0.52246000  0.59066000  1
  C  C420  1  0.79428000  0.54258000  0.64132000  1
  C  C421  1  0.81106000  0.50205000  0.69087000  1
  C  C422  1  0.82332000  0.58595000  0.75264000  1
  C  C423  1  0.85625000  0.32900000  0.73441000  1
  C  C424  1  0.61345000  0.00109000  0.71159000  1
  C  C425  1  0.54806000  0.97766000  0.75894000  1
  C  C426  1  0.55103000  0.91574000  0.75998000  1
  C  C427  1  0.62406000  0.87485000  0.71522000  1
  C  C428  1  0.69225000  0.89647000  0.66489000  1
  C  C429  1  0.76401000  0.85636000  0.61641000  1
  C  C430  1  0.82572000  0.87856000  0.56644000  1
  C  C431  1  0.81876000  0.94181000  0.56309000  1
  C  C432  1  0.75044000  0.98211000  0.60951000  1
  C  C433  1  0.68514000  0.96125000  0.66178000  1
  C  C434  1  0.60309000  0.06771000  0.71823000  1
  C  C435  1  0.62524000  0.80897000  0.72278000  1
  C  C436  1  0.60979000  0.74951000  0.93685000  1
  C  C437  1  0.66834000  0.71490000  0.97267000  1
  C  C438  1  0.64885000  0.73127000  0.03388000  1
  C  C439  1  0.56950000  0.78266000  0.05949000  1
  C  C440  1  0.50954000  0.82120000  0.02417000  1
  C  C441  1  0.43216000  0.87617000  0.04929000  1
  C  C442  1  0.37754000  0.91415000  0.01353000  1
  C  C443  1  0.39816000  0.89868000  0.95139000  1
  C  C444  1  0.47212000  0.84521000  0.92588000  1
  C  C445  1  0.52994000  0.80467000  0.96112000  1
  C  C446  1  0.63735000  0.72552000  0.87340000  1
  C  C447  1  0.54924000  0.79551000  0.12545000  1
  O  O448  1  0.64981000  0.86567000  0.23117000  1
  O  O449  1  0.72337000  0.90542000  0.28012000  1
  O  O450  1  0.42230000  0.20513000  0.27969000  1
  O  O451  1  0.40398000  0.19748000  0.18900000  1
  O  O452  1  0.00409000  0.40256000  0.17891000  1
  O  O453  1  0.88594000  0.40307000  0.26837000  1
  O  O454  1  0.72257000  0.73445000  0.22044000  1
  O  O455  1  0.59172000  0.70147000  0.23158000  1
  O  O456  1  0.67356000  0.80555000  0.34920000  1
  O  O457  1  0.55861000  0.76331000  0.34517000  1
  O  O458  1  0.67206000  0.69138000  0.64234000  1
  O  O459  1  0.50848000  0.70749000  0.66610000  1
  O  O460  1  0.74620000  0.13385000  0.76867000  1
  O  O461  1  0.90882000  0.09454000  0.72037000  1
  O  O462  1  0.90837000  0.79441000  0.72007000  1
  O  O463  1  0.79133000  0.80207000  0.81054000  1
  O  O464  1  0.58627000  0.59644000  0.82066000  1
  O  O465  1  0.55523000  0.59655000  0.73199000  1
  O  O466  1  0.67832000  0.26496000  0.77954000  1
  O  O467  1  0.52590000  0.29715000  0.76819000  1
  O  O468  1  0.82868000  0.19422000  0.65126000  1
  O  O469  1  0.66752000  0.23443000  0.65480000  1
  O  O470  1  0.00478000  0.30772000  0.35803000  1
  O  O471  1  0.88141000  0.29161000  0.33397000  1
  O  O472  1  0.62936000  0.26964000  0.36599000  1
  O  O473  1  0.75201000  0.22000000  0.40540000  1
  O  O474  1  0.45298000  0.21973000  0.70547000  1
  O  O475  1  0.34111000  0.30887000  0.69745000  1
  O  O476  1  0.93409000  0.32052000  0.90322000  1
  O  O477  1  0.90384000  0.23154000  0.90368000  1
  O  O478  1  0.69363000  0.27947000  0.23452000  1
  O  O479  1  0.57277000  0.26860000  0.20255000  1
  O  O480  1  0.77022000  0.15105000  0.30596000  1
  O  O481  1  0.65029000  0.15446000  0.26492000  1
  O  O482  1  0.06275000  0.85772000  0.19165000  1
  O  O483  1  0.92320000  0.83400000  0.20633000  1
  O  O484  1  0.26459000  0.73132000  0.63392000  1
  O  O485  1  0.37895000  0.77964000  0.59461000  1
  O  O486  1  0.37769000  0.78006000  0.29454000  1
  O  O487  1  0.34975000  0.69000000  0.30231000  1
  O  O488  1  0.15466000  0.67730000  0.09713000  1
  O  O489  1  0.04061000  0.76813000  0.09510000  1
  O  O490  1  0.20865000  0.72020000  0.76512000  1
  O  O491  1  0.04483000  0.73151000  0.79703000  1
  O  O492  1  0.23099000  0.84894000  0.69422000  1
  O  O493  1  0.07322000  0.84506000  0.73378000  1
  O  O494  1  0.11370000  0.14115000  0.80846000  1
  O  O495  1  0.96584000  0.16584000  0.79263000  1
  O  O496  1  0.14979000  0.23100000  0.86602000  1
  O  O497  1  0.22320000  0.28012000  0.90567000  1
  O  O498  1  0.92236000  0.27976000  0.20551000  1
  O  O499  1  0.90007000  0.19039000  0.19751000  1
  O  O500  1  0.50415000  0.17925000  0.40325000  1
  O  O501  1  0.38501000  0.26817000  0.40357000  1
  O  O502  1  0.22264000  0.22035000  0.73481000  1
  O  O503  1  0.09117000  0.23131000  0.70261000  1
  O  O504  1  0.17472000  0.34930000  0.80601000  1
  O  O505  1  0.05792000  0.34464000  0.76570000  1
  O  O506  1  0.17186000  0.64160000  0.69135000  1
  O  O507  1  0.00835000  0.66588000  0.70683000  1
  O  O508  1  0.24617000  0.76865000  0.13391000  1
  O  O509  1  0.40872000  0.72026000  0.09447000  1
  O  O510  1  0.40901000  0.71960000  0.79444000  1
  O  O511  1  0.29025000  0.80912000  0.80222000  1
  O  O512  1  0.08592000  0.82051000  0.59644000  1
  O  O513  1  0.05430000  0.73201000  0.59643000  1
  O  O514  1  0.17839000  0.77944000  0.26501000  1
  O  O515  1  0.02583000  0.76819000  0.29701000  1
  O  O516  1  0.32931000  0.65068000  0.19407000  1
  O  O517  1  0.16798000  0.65449000  0.23423000  1
  O  O518  1  0.50448000  0.35752000  0.30813000  1
  O  O519  1  0.38101000  0.33349000  0.29201000  1
  O  O520  1  0.12942000  0.36545000  0.26996000  1
  O  O521  1  0.25269000  0.40421000  0.21990000  1
  O  O522  1  0.95312000  0.70507000  0.21979000  1
  O  O523  1  0.84118000  0.69707000  0.30886000  1
  O  O524  1  0.43462000  0.90258000  0.32056000  1
  O  O525  1  0.40475000  0.90288000  0.23147000  1
  O  O526  1  0.19366000  0.23387000  0.27896000  1
  O  O527  1  0.07323000  0.20100000  0.26867000  1
  O  O528  1  0.26938000  0.30564000  0.15130000  1
  O  O529  1  0.15090000  0.26330000  0.15469000  1
  O  O530  1  0.56306000  0.19145000  0.85802000  1
  O  O531  1  0.42329000  0.20778000  0.83413000  1
  O  O532  1  0.76588000  0.63395000  0.73124000  1
  O  O533  1  0.87943000  0.59453000  0.78007000  1
  O  O534  1  0.87780000  0.29449000  0.78054000  1
  O  O535  1  0.84967000  0.30225000  0.69062000  1
  O  O536  1  0.65496000  0.09707000  0.67747000  1
  O  O537  1  0.54046000  0.09556000  0.76822000  1
  O  O538  1  0.70704000  0.76515000  0.72249000  1
  O  O539  1  0.54409000  0.79713000  0.73165000  1
  O  O540  1  0.73007000  0.69420000  0.84939000  1
  O  O541  1  0.57242000  0.73419000  0.84564000  1
  O  O542  1  0.61361000  0.80804000  0.14240000  1
  O  O543  1  0.46628000  0.79175000  0.16620000  1
