# generated using pymatgen
data_MgH6(C3O)4
_symmetry_space_group_name_H-M   'P 1'
_cell_length_a   11.25770000
_cell_length_b   11.25770000
_cell_length_c   20.94600000
_cell_angle_alpha   95.88220000
_cell_angle_beta   95.88220000
_cell_angle_gamma   106.47800000
_symmetry_Int_Tables_number   1
_chemical_formula_structural   MgH6(C3O)4
_chemical_formula_sum   'Mg6 H36 C72 O24'
_cell_volume   2507.98016474
_cell_formula_units_Z   6
loop_
 _symmetry_equiv_pos_site_id
 _symmetry_equiv_pos_as_xyz
  1  'x, y, z'
loop_
 _atom_site_type_symbol
 _atom_site_label
 _atom_site_symmetry_multiplicity
 _atom_site_fract_x
 _atom_site_fract_y
 _atom_site_fract_z
 _atom_site_occupancy
  Mg  Mg1  1  0.97766000  0.49292000  0.69214000  1.0
  Mg  Mg2  1  0.50708000  0.02234000  0.80786000  1.0
  Mg  Mg3  1  0.02234000  0.50708000  0.30786000  1.0
  Mg  Mg4  1  0.49292000  0.97766000  0.19214000  1.0
  Mg  Mg5  1  0.75239000  0.24761000  0.75000000  1.0
  Mg  Mg6  1  0.24761000  0.75239000  0.25000000  1.0
  H  H1  1  0.95270000  0.34730000  0.89080000  1.0
  H  H2  1  0.99650000  0.71330000  0.89460000  1.0
  H  H3  1  0.97720000  0.26000000  0.99500000  1.0
  H  H4  1  0.01070000  0.23850000  0.53040000  1.0
  H  H5  1  0.89510000  0.98210000  0.64670000  1.0
  H  H6  1  0.06760000  0.17100000  0.42360000  1.0
  H  H7  1  0.34770000  0.27830000  0.50900000  1.0
  H  H8  1  0.48460000  0.26920000  0.59590000  1.0
  H  H9  1  0.71230000  0.60310000  0.57770000  1.0
  H  H10  1  0.65270000  0.04730000  0.60920000  1.0
  H  H11  1  0.28670000  0.00350000  0.60540000  1.0
  H  H12  1  0.74000000  0.02280000  0.50500000  1.0
  H  H13  1  0.76150000  0.98930000  0.96960000  1.0
  H  H14  1  0.01790000  0.10490000  0.85330000  1.0
  H  H15  1  0.82900000  0.93240000  0.07640000  1.0
  H  H16  1  0.72170000  0.65230000  0.99100000  1.0
  H  H17  1  0.73080000  0.51540000  0.90410000  1.0
  H  H18  1  0.39690000  0.28770000  0.92230000  1.0
  H  H19  1  0.04730000  0.65270000  0.10920000  1.0
  H  H20  1  0.00350000  0.28670000  0.10540000  1.0
  H  H21  1  0.02280000  0.74000000  0.00500000  1.0
  H  H22  1  0.98930000  0.76150000  0.46960000  1.0
  H  H23  1  0.10490000  0.01790000  0.35330000  1.0
  H  H24  1  0.93240000  0.82900000  0.57640000  1.0
  H  H25  1  0.65230000  0.72170000  0.49100000  1.0
  H  H26  1  0.51540000  0.73080000  0.40410000  1.0
  H  H27  1  0.28770000  0.39690000  0.42230000  1.0
  H  H28  1  0.34730000  0.95270000  0.39080000  1.0
  H  H29  1  0.71330000  0.99650000  0.39460000  1.0
  H  H30  1  0.26000000  0.97720000  0.49500000  1.0
  H  H31  1  0.23850000  0.01070000  0.03040000  1.0
  H  H32  1  0.98210000  0.89510000  0.14670000  1.0
  H  H33  1  0.17100000  0.06760000  0.92360000  1.0
  H  H34  1  0.27830000  0.34770000  0.00900000  1.0
  H  H35  1  0.26920000  0.48460000  0.09590000  1.0
  H  H36  1  0.60310000  0.71230000  0.07770000  1.0
  C  C1  1  0.98850000  0.43970000  0.98210000  1.0
  C  C2  1  0.96860000  0.42620000  0.91430000  1.0
  C  C3  1  0.97220000  0.52560000  0.88230000  1.0
  C  C4  1  0.99390000  0.64530000  0.91670000  1.0
  C  C5  1  0.98900000  0.33900000  0.01750000  1.0
  C  C6  1  0.95810000  0.51110000  0.80910000  1.0
  C  C7  1  0.01250000  0.06190000  0.49220000  1.0
  C  C8  1  0.99220000  0.15620000  0.53880000  1.0
  C  C9  1  0.94690000  0.12630000  0.59440000  1.0
  C  C10  1  0.92470000  0.00230000  0.60810000  1.0
  C  C11  1  0.05400000  0.09040000  0.43420000  1.0
  C  C12  1  0.91490000  0.22110000  0.64050000  1.0
  C  C13  1  0.42010000  0.34450000  0.52240000  1.0
  C  C14  1  0.50290000  0.33890000  0.57420000  1.0
  C  C15  1  0.61380000  0.43520000  0.59500000  1.0
  C  C16  1  0.63890000  0.53830000  0.56380000  1.0
  C  C17  1  0.44460000  0.45100000  0.48940000  1.0
  C  C18  1  0.70690000  0.42350000  0.64960000  1.0
  C  C19  1  0.56030000  0.01150000  0.51790000  1.0
  C  C20  1  0.57380000  0.03140000  0.58570000  1.0
  C  C21  1  0.47440000  0.02780000  0.61770000  1.0
  C  C22  1  0.35470000  0.00610000  0.58330000  1.0
  C  C23  1  0.66100000  0.01100000  0.48250000  1.0
  C  C24  1  0.48890000  0.04190000  0.69090000  1.0
  C  C25  1  0.93810000  0.98750000  0.00780000  1.0
  C  C26  1  0.84380000  0.00780000  0.96120000  1.0
  C  C27  1  0.87370000  0.05310000  0.90560000  1.0
  C  C28  1  0.99770000  0.07530000  0.89190000  1.0
  C  C29  1  0.90960000  0.94600000  0.06580000  1.0
  C  C30  1  0.77890000  0.08510000  0.85950000  1.0
  C  C31  1  0.65550000  0.57990000  0.97760000  1.0
  C  C32  1  0.66110000  0.49710000  0.92580000  1.0
  C  C33  1  0.56480000  0.38620000  0.90500000  1.0
  C  C34  1  0.46170000  0.36110000  0.93620000  1.0
  C  C35  1  0.54900000  0.55540000  0.01060000  1.0
  C  C36  1  0.57650000  0.29310000  0.85040000  1.0
  C  C37  1  0.01150000  0.56030000  0.01790000  1.0
  C  C38  1  0.03140000  0.57380000  0.08570000  1.0
  C  C39  1  0.02780000  0.47440000  0.11770000  1.0
  C  C40  1  0.00610000  0.35470000  0.08330000  1.0
  C  C41  1  0.01100000  0.66100000  0.98250000  1.0
  C  C42  1  0.04190000  0.48890000  0.19090000  1.0
  C  C43  1  0.98750000  0.93810000  0.50780000  1.0
  C  C44  1  0.00780000  0.84380000  0.46120000  1.0
  C  C45  1  0.05310000  0.87370000  0.40560000  1.0
  C  C46  1  0.07530000  0.99770000  0.39190000  1.0
  C  C47  1  0.94600000  0.90960000  0.56580000  1.0
  C  C48  1  0.08510000  0.77890000  0.35950000  1.0
  C  C49  1  0.57990000  0.65550000  0.47760000  1.0
  C  C50  1  0.49710000  0.66110000  0.42580000  1.0
  C  C51  1  0.38620000  0.56480000  0.40500000  1.0
  C  C52  1  0.36110000  0.46170000  0.43620000  1.0
  C  C53  1  0.55540000  0.54900000  0.51060000  1.0
  C  C54  1  0.29310000  0.57650000  0.35040000  1.0
  C  C55  1  0.43970000  0.98850000  0.48210000  1.0
  C  C56  1  0.42620000  0.96860000  0.41430000  1.0
  C  C57  1  0.52560000  0.97220000  0.38230000  1.0
  C  C58  1  0.64530000  0.99390000  0.41670000  1.0
  C  C59  1  0.33900000  0.98900000  0.51750000  1.0
  C  C60  1  0.51110000  0.95810000  0.30910000  1.0
  C  C61  1  0.06190000  0.01250000  0.99220000  1.0
  C  C62  1  0.15620000  0.99220000  0.03880000  1.0
  C  C63  1  0.12630000  0.94690000  0.09440000  1.0
  C  C64  1  0.00230000  0.92470000  0.10810000  1.0
  C  C65  1  0.09040000  0.05400000  0.93420000  1.0
  C  C66  1  0.22110000  0.91490000  0.14050000  1.0
  C  C67  1  0.34450000  0.42010000  0.02240000  1.0
  C  C68  1  0.33890000  0.50290000  0.07420000  1.0
  C  C69  1  0.43520000  0.61380000  0.09500000  1.0
  C  C70  1  0.53830000  0.63890000  0.06380000  1.0
  C  C71  1  0.45100000  0.44460000  0.98940000  1.0
  C  C72  1  0.42350000  0.70690000  0.14960000  1.0
  O  O1  1  0.95260000  0.33380000  0.63100000  1.0
  O  O2  1  0.85320000  0.18000000  0.68410000  1.0
  O  O3  1  0.91320000  0.40360000  0.77643000  1.0
  O  O4  1  0.00030000  0.60650000  0.78243000  1.0
  O  O5  1  0.67400000  0.33140000  0.67934000  1.0
  O  O6  1  0.80980000  0.50760000  0.65960000  1.0
  O  O7  1  0.66620000  0.04740000  0.86900000  1.0
  O  O8  1  0.82000000  0.14680000  0.81590000  1.0
  O  O9  1  0.59640000  0.08680000  0.72357000  1.0
  O  O10  1  0.39350000  0.99970000  0.71757000  1.0
  O  O11  1  0.66860000  0.32600000  0.82066000  1.0
  O  O12  1  0.49240000  0.19020000  0.84040000  1.0
  O  O13  1  0.04740000  0.66620000  0.36900000  1.0
  O  O14  1  0.14680000  0.82000000  0.31590000  1.0
  O  O15  1  0.08680000  0.59640000  0.22357000  1.0
  O  O16  1  0.99970000  0.39350000  0.21757000  1.0
  O  O17  1  0.32600000  0.66860000  0.32066000  1.0
  O  O18  1  0.19020000  0.49240000  0.34040000  1.0
  O  O19  1  0.33380000  0.95260000  0.13100000  1.0
  O  O20  1  0.18000000  0.85320000  0.18410000  1.0
  O  O21  1  0.40360000  0.91320000  0.27643000  1.0
  O  O22  1  0.60650000  0.00030000  0.28243000  1.0
  O  O23  1  0.33140000  0.67400000  0.17934000  1.0
  O  O24  1  0.50760000  0.80980000  0.15960000  1.0
