# generated using pymatgen
data_H9C16
_symmetry_space_group_name_H-M   'P 1'
_cell_length_a   18.81192500
_cell_length_b   18.81195000
_cell_length_c   58.89780000
_cell_angle_alpha   89.89470000
_cell_angle_beta   89.78939964
_cell_angle_gamma   59.99986812
_symmetry_Int_Tables_number   1
_chemical_formula_structural   H9C16
_chemical_formula_sum   'H216 C384'
_cell_volume   18050.66673880
_cell_formula_units_Z   24
loop_
 _symmetry_equiv_pos_site_id
 _symmetry_equiv_pos_as_xyz
  1  'x, y, z'
loop_
 _atom_site_type_symbol
 _atom_site_label
 _atom_site_symmetry_multiplicity
 _atom_site_fract_x
 _atom_site_fract_y
 _atom_site_fract_z
 _atom_site_occupancy
  C  1  1  0.04981800  0.97162850  0.97649200  1
  C  2  1  0.09360600  0.88428200  0.97875700  1
  C  3  1  0.18086400  0.84056200  0.97997700  1
  C  4  1  0.22146700  0.88582700  0.97661000  1
  C  5  1  0.18100400  0.97160850  0.97316300  1
  C  6  1  0.09368800  0.01514950  0.97429500  1
  C  7  1  0.04854800  0.84265350  0.97806400  1
  C  8  1  0.04860200  0.10184750  0.97493600  1
  C  10  1  0.96195700  0.01555500  0.97643000  1
  C  11  1  0.91817600  0.97201150  0.97417800  1
  C  12  1  0.83091100  0.01556800  0.97295300  1
  C  13  1  0.79032300  0.10139750  0.97633300  1
  C  14  1  0.83077800  0.14668450  0.97978600  1
  C  15  1  0.91808800  0.10292400  0.97862700  1
  C  16  1  0.96323800  0.88531550  0.97487700  1
  C  18  1  0.96317200  0.14454450  0.97796400  1
  C  23  1  0.98229200  0.97378400  0.64309700  1
  C  24  1  0.89490300  0.01731850  0.64531400  1
  C  25  1  0.85112100  0.97379250  0.64642100  1
  C  26  1  0.89639800  0.88802250  0.64295400  1
  C  27  1  0.98224100  0.84278350  0.63954300  1
  C  28  1  0.02583200  0.88644900  0.64080600  1
  C  29  1  0.85330500  0.10401700  0.64470300  1
  C  30  1  0.11252600  0.84480400  0.64150200  1
  C  32  1  0.02624000  0.01769850  0.64317300  1
  C  33  1  0.98275200  0.10506800  0.64098400  1
  C  34  1  0.02632800  0.14879550  0.63983200  1
  C  35  1  0.11206800  0.10351600  0.64328300  1
  C  36  1  0.15725600  0.01770750  0.64669400  1
  C  37  1  0.11356600  0.97413700  0.64542300  1
  C  38  1  0.89604900  0.14670400  0.64166200  1
  C  40  1  0.15517800  0.88744450  0.64471100  1
  C  45  1  0.98469700  0.03852000  0.30981200  1
  C  46  1  0.02817800  0.08234450  0.31212000  1
  C  47  1  0.98456400  0.16962650  0.31334500  1
  C  48  1  0.89884400  0.21016150  0.30985600  1
  C  49  1  0.85368400  0.16962250  0.30633200  1
  C  50  1  0.89738500  0.08233650  0.30751800  1
  C  51  1  0.11488600  0.03728100  0.31151200  1
  C  52  1  0.85576700  0.03724700  0.30812100  1
  C  54  1  0.02863400  0.95066200  0.30979400  1
  C  55  1  0.11603000  0.90685300  0.30759800  1
  C  56  1  0.15976000  0.81957500  0.30636600  1
  C  57  1  0.11447000  0.77901250  0.30976000  1
  C  58  1  0.02863200  0.81953700  0.31317100  1
  C  59  1  0.98507300  0.90682150  0.31197000  1
  C  60  1  0.15762600  0.95193850  0.30833700  1
  C  62  1  0.89839100  0.95188850  0.31125200  1
  C  67  1  0.01823200  0.55498950  0.59828500  1
  C  68  1  0.00437800  0.49585800  0.60944000  1
  C  69  1  0.99036500  0.43684800  0.59837800  1
  C  70  1  0.98845500  0.44090900  0.57430100  1
  C  71  1  0.00419000  0.49602600  0.56180400  1
  C  72  1  0.01998200  0.55109400  0.57420600  1
  C  73  1  0.98265100  0.37493200  0.61069600  1
  C  74  1  0.01400000  0.35161250  0.63308300  1
  C  75  1  0.01953600  0.28255850  0.64391300  1
  C  76  1  0.99337400  0.23234700  0.63322500  1
  C  77  1  0.95265200  0.26020200  0.61218700  1
  C  78  1  0.94863900  0.32891050  0.60117500  1
  C  79  1  0.02601400  0.61682100  0.61053700  1
  C  80  1  0.99459300  0.64010350  0.63297100  1
  C  81  1  0.98918500  0.70903250  0.64377400  1
  C  82  1  0.01539000  0.75919750  0.63296900  1
  C  83  1  0.05591600  0.73158900  0.61184200  1
  C  84  1  0.06008200  0.66282250  0.60089800  1
  C  85  1  0.00412800  0.49604850  0.53735700  1
  C  86  1  0.96919100  0.57028450  0.52479600  1
  C  87  1  0.96979400  0.57035500  0.50088700  1
  C  88  1  0.00391600  0.49603950  0.48855200  1
  C  89  1  0.03818400  0.42173150  0.50089700  1
  C  90  1  0.03900800  0.42180700  0.52480300  1
  C  106  1  0.56620700  0.42164500  0.26498700  1
  C  107  1  0.50706200  0.49463600  0.27611100  1
  C  108  1  0.44815300  0.56769700  0.26502200  1
  C  109  1  0.45229700  0.56559200  0.24094500  1
  C  110  1  0.50736700  0.49472200  0.22847300  1
  C  111  1  0.56239600  0.42385800  0.24090800  1
  C  112  1  0.38619800  0.63731000  0.27732400  1
  C  113  1  0.36263400  0.62919100  0.29972800  1
  C  114  1  0.29349800  0.69269400  0.31054400  1
  C  115  1  0.24345600  0.76913150  0.29982400  1
  C  116  1  0.27150400  0.78201850  0.27875000  1
  C  117  1  0.34035200  0.71739400  0.26776300  1
  C  118  1  0.62795100  0.35197900  0.27725700  1
  C  119  1  0.65102200  0.36001750  0.29967300  1
  C  120  1  0.71978100  0.29643400  0.31051200  1
  C  121  1  0.77019500  0.22014350  0.29974200  1
  C  122  1  0.74285700  0.20737950  0.27861700  1
  C  123  1  0.67416300  0.27197250  0.26765600  1
  C  124  1  0.50735000  0.49473600  0.20402200  1
  C  125  1  0.58154100  0.45512100  0.19138300  1
  C  126  1  0.58155100  0.45434700  0.16747500  1
  C  127  1  0.50723000  0.49483250  0.15521000  1
  C  128  1  0.43296900  0.53524200  0.16762900  1
  C  129  1  0.43310000  0.53436000  0.19153500  1
  C  145  1  0.43318100  0.00773900  0.93173700  1
  C  146  1  0.50617700  0.99368350  0.94279200  1
  C  147  1  0.57923800  0.97973000  0.93163200  1
  C  148  1  0.57719100  0.97780800  0.90755200  1
  C  149  1  0.50640500  0.99348200  0.89514900  1
  C  150  1  0.43545800  0.00945800  0.90765900  1
  C  151  1  0.64880100  0.97198550  0.94387900  1
  C  152  1  0.64058300  0.00330450  0.96629900  1
  C  153  1  0.70404900  0.00865650  0.97711200  1
  C  154  1  0.78045200  0.98256550  0.96632900  1
  C  155  1  0.79344500  0.94219300  0.94521300  1
  C  156  1  0.72891000  0.93803100  0.93426300  1
  C  157  1  0.36344400  0.01562550  0.94406200  1
  C  158  1  0.37140600  0.98414750  0.96646600  1
  C  159  1  0.30784400  0.97845350  0.97726700  1
  C  160  1  0.23155400  0.00466250  0.96652800  1
  C  161  1  0.21879600  0.04552100  0.94548700  1
  C  162  1  0.28344000  0.04986517  0.93451800  1
  C  163  1  0.50642300  0.99325450  0.87069500  1
  C  164  1  0.46655700  0.95878200  0.85825400  1
  C  165  1  0.46543300  0.95958550  0.83434900  1
  C  166  1  0.50581900  0.99335300  0.82188000  1
  C  167  1  0.54660800  0.02696900  0.83409800  1
  C  168  1  0.54611600  0.02764150  0.85800900  1
  C  184  1  0.57909600  0.43509650  0.02118800  1
  C  185  1  0.50602500  0.49409600  0.01014000  1
  C  186  1  0.43312500  0.55334000  0.02131100  1
  C  187  1  0.43548600  0.54967050  0.04539300  1
  C  188  1  0.50637300  0.49454250  0.05777400  1
  C  189  1  0.57707600  0.43923000  0.04526300  1
  C  190  1  0.36337000  0.61500400  0.00906700  1
  C  191  1  0.37129000  0.63809800  0.98659100  1
  C  192  1  0.30759000  0.70678850  0.97574900  1
  C  193  1  0.23132800  0.75703150  0.98659500  1
  C  194  1  0.21863000  0.72966650  0.00778700  1
  C  195  1  0.28337200  0.66105800  0.01874900  1
  C  196  1  0.64866100  0.37310900  0.00886700  1
  C  197  1  0.64049200  0.34969150  0.98650000  1
  C  198  1  0.70390700  0.28045450  0.97569800  1
  C  199  1  0.78020300  0.23022650  0.98642400  1
  C  200  1  0.79325600  0.25818400  0.00741200  1
  C  201  1  0.72872300  0.32713300  0.01837300  1
  C  202  1  0.50658900  0.49464550  0.08221700  1
  C  203  1  0.54563200  0.42042550  0.09478400  1
  C  204  1  0.54663300  0.42041850  0.11869000  1
  C  205  1  0.50711600  0.49479300  0.13101800  1
  C  206  1  0.46729200  0.56909150  0.11866500  1
  C  207  1  0.46782600  0.56894400  0.09475400  1
  C  223  1  0.99163000  0.56793800  0.35453700  1
  C  224  1  0.00582400  0.49481400  0.34347600  1
  C  225  1  0.01945800  0.42194250  0.35463400  1
  C  226  1  0.02066000  0.42438500  0.37871300  1
  C  227  1  0.00479200  0.49532250  0.39111300  1
  C  228  1  0.98935700  0.56602050  0.37861500  1
  C  229  1  0.02764600  0.35213400  0.34238200  1
  C  230  1  0.99697400  0.35994300  0.31992300  1
  C  231  1  0.99168400  0.29631950  0.30914200  1
  C  232  1  0.01751800  0.22013050  0.31997400  1
  C  233  1  0.05770700  0.20739000  0.34107500  1
  C  234  1  0.06143000  0.27220000  0.35203500  1
  C  235  1  0.98412900  0.63745200  0.34221900  1
  C  236  1  0.01591800  0.62917350  0.31982100  1
  C  237  1  0.02189800  0.69254150  0.30903800  1
  C  238  1  0.99541900  0.76905950  0.31972400  1
  C  239  1  0.95426400  0.78208800  0.34076600  1
  C  240  1  0.94978700  0.71759600  0.35174400  1
  C  241  1  0.00446000  0.49557100  0.41555700  1
  C  242  1  0.03945800  0.53479850  0.42805800  1
  C  243  1  0.03846100  0.53583400  0.45196400  1
  C  244  1  0.00395400  0.49599850  0.46436000  1
  C  245  1  0.96967400  0.45597050  0.45207600  1
  C  246  1  0.96919300  0.45656650  0.42816700  1
  C  262  1  0.44509600  0.98122400  0.68795400  1
  C  263  1  0.50420400  0.99524050  0.67681500  1
  C  264  1  0.56331100  0.00899550  0.68789300  1
  C  265  1  0.55956300  0.01023400  0.71197200  1
  C  266  1  0.50446600  0.99436100  0.72444600  1
  C  267  1  0.44910700  0.97910200  0.71203300  1
  C  268  1  0.62504300  0.01712150  0.67558000  1
  C  269  1  0.64830100  0.98616100  0.65312100  1
  C  270  1  0.71738100  0.98079500  0.64230000  1
  C  271  1  0.76755300  0.00679100  0.65308700  1
  C  272  1  0.73966300  0.04724100  0.67419100  1
  C  273  1  0.67091900  0.05114900  0.68518000  1
  C  274  1  0.38318600  0.97368100  0.67569600  1
  C  275  1  0.36006400  0.00513150  0.65329200  1
  C  276  1  0.29110800  0.01073750  0.64249600  1
  C  277  1  0.24080600  0.98456250  0.65324500  1
  C  278  1  0.26838200  0.94378500  0.67430700  1
  C  279  1  0.33700800  0.93970700  0.68528000  1
  C  280  1  0.50476200  0.99385100  0.74888900  1
  C  281  1  0.43067100  0.02917850  0.76158100  1
  C  282  1  0.43093300  0.02831350  0.78549200  1
  C  283  1  0.50544700  0.99345550  0.79768900  1
  C  284  1  0.57961700  0.95868150  0.78520300  1
  C  285  1  0.57919900  0.95819500  0.76129700  1
  C  1201  1  0.04981800  0.97162850  0.51807100  1
  C  1202  1  0.09360600  0.88428200  0.52033600  1
  C  1203  1  0.18086400  0.84056200  0.52155600  1
  C  1204  1  0.22146700  0.88582700  0.51818900  1
  C  1205  1  0.18100400  0.97160850  0.51474200  1
  C  1206  1  0.09368800  0.01514950  0.51587400  1
  C  1207  1  0.04854800  0.84265350  0.51964300  1
  C  1208  1  0.04860200  0.10184750  0.51651500  1
  C  1210  1  0.96195700  0.01555500  0.51800900  1
  C  1211  1  0.91817600  0.97201150  0.51575700  1
  C  1212  1  0.83091100  0.01556800  0.51453200  1
  C  1213  1  0.79032300  0.10139750  0.51791200  1
  C  1214  1  0.83077800  0.14668450  0.52136500  1
  C  1215  1  0.91808800  0.10292400  0.52020600  1
  C  1216  1  0.96323800  0.88531550  0.51645600  1
  C  1218  1  0.96317200  0.14454450  0.51954300  1
  C  1223  1  0.98229200  0.97378400  0.18467600  1
  C  1224  1  0.89490300  0.01731850  0.18689300  1
  C  1225  1  0.85112100  0.97379250  0.18800000  1
  C  1226  1  0.89639800  0.88802250  0.18453300  1
  C  1227  1  0.98224100  0.84278350  0.18112200  1
  C  1228  1  0.02583200  0.88644900  0.18238500  1
  C  1229  1  0.85330500  0.10401700  0.18628200  1
  C  1230  1  0.11252600  0.84480400  0.18308100  1
  C  1232  1  0.02624000  0.01769850  0.18475200  1
  C  1233  1  0.98275200  0.10506800  0.18256300  1
  C  1234  1  0.02632800  0.14879550  0.18141100  1
  C  1235  1  0.11206800  0.10351600  0.18486200  1
  C  1236  1  0.15725600  0.01770750  0.18827300  1
  C  1237  1  0.11356600  0.97413700  0.18700200  1
  C  1238  1  0.89604900  0.14670400  0.18324100  1
  C  1240  1  0.15517800  0.88744450  0.18629000  1
  C  1245  1  0.98469700  0.03852000  0.85139100  1
  C  1246  1  0.02817800  0.08234450  0.85369900  1
  C  1247  1  0.98456400  0.16962650  0.85492400  1
  C  1248  1  0.89884400  0.21016150  0.85143500  1
  C  1249  1  0.85368400  0.16962250  0.84791100  1
  C  1250  1  0.89738500  0.08233650  0.84909700  1
  C  1251  1  0.11488600  0.03728100  0.85309100  1
  C  1252  1  0.85576700  0.03724700  0.84970000  1
  C  1254  1  0.02863400  0.95066200  0.85137300  1
  C  1255  1  0.11603000  0.90685300  0.84917700  1
  C  1256  1  0.15976000  0.81957500  0.84794500  1
  C  1257  1  0.11447000  0.77901250  0.85133900  1
  C  1258  1  0.02863200  0.81953700  0.85475000  1
  C  1259  1  0.98507300  0.90682150  0.85354900  1
  C  1260  1  0.15762600  0.95193850  0.84991600  1
  C  1262  1  0.89839100  0.95188850  0.85283100  1
  C  1267  1  0.01823200  0.55498950  0.13986400  1
  C  1268  1  0.00437800  0.49585800  0.15101900  1
  C  1269  1  0.99036500  0.43684800  0.13995700  1
  C  1270  1  0.98845500  0.44090900  0.11588000  1
  C  1271  1  0.00419000  0.49602600  0.10338300  1
  C  1272  1  0.01998200  0.55109400  0.11578500  1
  C  1273  1  0.98265100  0.37493200  0.15227500  1
  C  1274  1  0.01400000  0.35161250  0.17466200  1
  C  1275  1  0.01953600  0.28255850  0.18549200  1
  C  1276  1  0.99337400  0.23234700  0.17480400  1
  C  1277  1  0.95265200  0.26020200  0.15376600  1
  C  1278  1  0.94863900  0.32891050  0.14275400  1
  C  1279  1  0.02601400  0.61682100  0.15211600  1
  C  1280  1  0.99459300  0.64010350  0.17455000  1
  C  1281  1  0.98918500  0.70903250  0.18535300  1
  C  1282  1  0.01539000  0.75919750  0.17454800  1
  C  1283  1  0.05591600  0.73158900  0.15342100  1
  C  1284  1  0.06008200  0.66282250  0.14247700  1
  C  1285  1  0.00412800  0.49604850  0.07893600  1
  C  1286  1  0.96919100  0.57028450  0.06637500  1
  C  1287  1  0.96979400  0.57035500  0.04246600  1
  C  1288  1  0.00391600  0.49603950  0.03013100  1
  C  1289  1  0.03818400  0.42173150  0.04247600  1
  C  1290  1  0.03900800  0.42180700  0.06638200  1
  C  1306  1  0.56620700  0.42164500  0.80656600  1
  C  1307  1  0.50706200  0.49463600  0.81769000  1
  C  1308  1  0.44815300  0.56769700  0.80660100  1
  C  1309  1  0.45229700  0.56559200  0.78252400  1
  C  1310  1  0.50736700  0.49472200  0.77005200  1
  C  1311  1  0.56239600  0.42385800  0.78248700  1
  C  1312  1  0.38619800  0.63731000  0.81890300  1
  C  1313  1  0.36263400  0.62919100  0.84130700  1
  C  1314  1  0.29349800  0.69269400  0.85212300  1
  C  1315  1  0.24345600  0.76913150  0.84140300  1
  C  1316  1  0.27150400  0.78201850  0.82032900  1
  C  1317  1  0.34035200  0.71739400  0.80934200  1
  C  1318  1  0.62795100  0.35197900  0.81883600  1
  C  1319  1  0.65102200  0.36001750  0.84125200  1
  C  1320  1  0.71978100  0.29643400  0.85209100  1
  C  1321  1  0.77019500  0.22014350  0.84132100  1
  C  1322  1  0.74285700  0.20737950  0.82019600  1
  C  1323  1  0.67416300  0.27197250  0.80923500  1
  C  1324  1  0.50735000  0.49473600  0.74560100  1
  C  1325  1  0.58154100  0.45512100  0.73296200  1
  C  1326  1  0.58155100  0.45434700  0.70905400  1
  C  1327  1  0.50723000  0.49483250  0.69678900  1
  C  1328  1  0.43296900  0.53524200  0.70920800  1
  C  1329  1  0.43310000  0.53436000  0.73311400  1
  C  1345  1  0.43318100  0.00773900  0.47331600  1
  C  1346  1  0.50617700  0.99368350  0.48437100  1
  C  1347  1  0.57923800  0.97973000  0.47321100  1
  C  1348  1  0.57719100  0.97780800  0.44913100  1
  C  1349  1  0.50640500  0.99348200  0.43672800  1
  C  1350  1  0.43545800  0.00945800  0.44923800  1
  C  1351  1  0.64880100  0.97198550  0.48545800  1
  C  1352  1  0.64058300  0.00330450  0.50787800  1
  C  1353  1  0.70404900  0.00865650  0.51869100  1
  C  1354  1  0.78045200  0.98256550  0.50790800  1
  C  1355  1  0.79344500  0.94219300  0.48679200  1
  C  1356  1  0.72891000  0.93803100  0.47584200  1
  C  1357  1  0.36344400  0.01562550  0.48564100  1
  C  1358  1  0.37140600  0.98414750  0.50804500  1
  C  1359  1  0.30784400  0.97845350  0.51884600  1
  C  1360  1  0.23155400  0.00466250  0.50810700  1
  C  1361  1  0.21879600  0.04552100  0.48706600  1
  C  1362  1  0.28344000  0.04986517  0.47609700  1
  C  1363  1  0.50642300  0.99325450  0.41227400  1
  C  1364  1  0.46655700  0.95878200  0.39983300  1
  C  1365  1  0.46543300  0.95958550  0.37592800  1
  C  1366  1  0.50581900  0.99335300  0.36345900  1
  C  1367  1  0.54660800  0.02696900  0.37567700  1
  C  1368  1  0.54611600  0.02764150  0.39958800  1
  C  1384  1  0.57909600  0.43509650  0.56276700  1
  C  1385  1  0.50602500  0.49409600  0.55171900  1
  C  1386  1  0.43312500  0.55334000  0.56289000  1
  C  1387  1  0.43548600  0.54967050  0.58697200  1
  C  1388  1  0.50637300  0.49454250  0.59935300  1
  C  1389  1  0.57707600  0.43923000  0.58684200  1
  C  1390  1  0.36337000  0.61500400  0.55064600  1
  C  1391  1  0.37129000  0.63809800  0.52817000  1
  C  1392  1  0.30759000  0.70678850  0.51732800  1
  C  1393  1  0.23132800  0.75703150  0.52817400  1
  C  1394  1  0.21863000  0.72966650  0.54936600  1
  C  1395  1  0.28337200  0.66105800  0.56032800  1
  C  1396  1  0.64866100  0.37310900  0.55044600  1
  C  1397  1  0.64049200  0.34969150  0.52807900  1
  C  1398  1  0.70390700  0.28045450  0.51727700  1
  C  1399  1  0.78020300  0.23022650  0.52800300  1
  C  1400  1  0.79325600  0.25818400  0.54899100  1
  C  1401  1  0.72872300  0.32713300  0.55995200  1
  C  1402  1  0.50658900  0.49464550  0.62379600  1
  C  1403  1  0.54563200  0.42042550  0.63636300  1
  C  1404  1  0.54663300  0.42041850  0.66026900  1
  C  1405  1  0.50711600  0.49479300  0.67259700  1
  C  1406  1  0.46729200  0.56909150  0.66024400  1
  C  1407  1  0.46782600  0.56894400  0.63633300  1
  C  1423  1  0.99163000  0.56793800  0.89611600  1
  C  1424  1  0.00582400  0.49481400  0.88505500  1
  C  1425  1  0.01945800  0.42194250  0.89621300  1
  C  1426  1  0.02066000  0.42438500  0.92029180  1
  C  1427  1  0.00479200  0.49532250  0.93269180  1
  C  1428  1  0.98935700  0.56602050  0.92019380  1
  C  1429  1  0.02764600  0.35213400  0.88396100  1
  C  1430  1  0.99697400  0.35994300  0.86150200  1
  C  1431  1  0.99168400  0.29631950  0.85072100  1
  C  1432  1  0.01751800  0.22013050  0.86155300  1
  C  1433  1  0.05770700  0.20739000  0.88265400  1
  C  1434  1  0.06143000  0.27220000  0.89361400  1
  C  1435  1  0.98412900  0.63745200  0.88379800  1
  C  1436  1  0.01591800  0.62917350  0.86140000  1
  C  1437  1  0.02189800  0.69254150  0.85061700  1
  C  1438  1  0.99541900  0.76905950  0.86130300  1
  C  1439  1  0.95426400  0.78208800  0.88234500  1
  C  1440  1  0.94978700  0.71759600  0.89332300  1
  C  1441  1  0.00446000  0.49557100  0.95713580  1
  C  1442  1  0.03945800  0.53479850  0.96963680  1
  C  1443  1  0.03846100  0.53583400  0.99354280  1
  C  1444  1  0.00395400  0.49599850  0.00593900  1
  C  1445  1  0.96967400  0.45597050  0.99365480  1
  C  1446  1  0.96919300  0.45656650  0.96974580  1
  C  1462  1  0.44509600  0.98122400  0.22953300  1
  C  1463  1  0.50420400  0.99524050  0.21839400  1
  C  1464  1  0.56331100  0.00899550  0.22947200  1
  C  1465  1  0.55956300  0.01023400  0.25355100  1
  C  1466  1  0.50446600  0.99436100  0.26602500  1
  C  1467  1  0.44910700  0.97910200  0.25361200  1
  C  1468  1  0.62504300  0.01712150  0.21715900  1
  C  1469  1  0.64830100  0.98616100  0.19470000  1
  C  1470  1  0.71738100  0.98079500  0.18387900  1
  C  1471  1  0.76755300  0.00679100  0.19466600  1
  C  1472  1  0.73966300  0.04724100  0.21577000  1
  C  1473  1  0.67091900  0.05114900  0.22675900  1
  C  1474  1  0.38318600  0.97368100  0.21727500  1
  C  1475  1  0.36006400  0.00513150  0.19487100  1
  C  1476  1  0.29110800  0.01073750  0.18407500  1
  C  1477  1  0.24080600  0.98456250  0.19482400  1
  C  1478  1  0.26838200  0.94378500  0.21588600  1
  C  1479  1  0.33700800  0.93970700  0.22685900  1
  C  1480  1  0.50476200  0.99385100  0.29046800  1
  C  1481  1  0.43067100  0.02917850  0.30316000  1
  C  1482  1  0.43093300  0.02831350  0.32707100  1
  C  1483  1  0.50544700  0.99345550  0.33926800  1
  C  1484  1  0.57961700  0.95868150  0.32678200  1
  C  1485  1  0.57919900  0.95819500  0.30287600  1
  H  9  1  0.28429200  0.85438350  0.97662200  1
  H  17  1  0.72750100  0.13278900  0.97632400  1
  H  19  1  0.93392900  0.85191500  0.97442200  1
  H  20  1  0.07783800  0.77995050  0.97862600  1
  H  21  1  0.93386900  0.20725850  0.97841100  1
  H  22  1  0.07790400  0.13526250  0.97447500  1
  H  31  1  0.86498900  0.85660750  0.64292500  1
  H  39  1  0.14350800  0.13489850  0.64331100  1
  H  41  1  0.86263800  0.20941700  0.64120200  1
  H  42  1  0.79058700  0.13744750  0.64515800  1
  H  43  1  0.21788600  0.85401800  0.64517300  1
  H  44  1  0.14592200  0.78210250  0.64095700  1
  H  53  1  0.86742200  0.27298350  0.30988000  1
  H  61  1  0.14589800  0.71619100  0.30975400  1
  H  63  1  0.22035000  0.92263400  0.30790200  1
  H  64  1  0.14827800  0.06659000  0.31203600  1
  H  65  1  0.86497500  0.92258150  0.31165100  1
  H  66  1  0.79306600  0.06652350  0.30759600  1
  H  91  1  0.95918700  0.72646600  0.65907000  1
  H  92  1  0.96532600  0.61406400  0.64108800  1
  H  93  1  0.07347000  0.76694650  0.60285900  1
  H  94  1  0.08704200  0.64851200  0.58524000  1
  H  95  1  0.94135900  0.62572050  0.53295300  1
  H  96  1  0.94320500  0.62545550  0.49253300  1
  H  97  1  0.06685400  0.36637200  0.53295600  1
  H  98  1  0.06470400  0.36662150  0.49255000  1
  H  99  1  0.92176900  0.34317750  0.58555300  1
  H  100  1  0.93550500  0.22468600  0.60320900  1
  H  101  1  0.04945500  0.26516200  0.65917000  1
  H  102  1  0.04326000  0.37758950  0.64113700  1
  H  103  1  0.00450000  0.49577150  0.62661700  1
  H  104  1  0.02931200  0.59195850  0.56515800  1
  H  105  1  0.97903300  0.40012550  0.56531400  1
  H  130  1  0.73700100  0.30903500  0.32578200  1
  H  131  1  0.62487800  0.41527100  0.30776600  1
  H  132  1  0.77835500  0.15455100  0.26964600  1
  H  133  1  0.66007300  0.25935900  0.25201200  1
  H  134  1  0.63700200  0.42729100  0.19947600  1
  H  135  1  0.63662700  0.42560100  0.15906500  1
  H  136  1  0.37767600  0.56213400  0.19974500  1
  H  137  1  0.37784600  0.56396650  0.15933900  1
  H  138  1  0.35482200  0.73004400  0.25212500  1
  H  139  1  0.23620200  0.83480950  0.26976600  1
  H  140  1  0.27586600  0.68009500  0.32580600  1
  H  141  1  0.38846200  0.57389800  0.30780400  1
  H  142  1  0.50687400  0.49459700  0.29328900  1
  H  143  1  0.60314100  0.37360600  0.23187700  1
  H  144  1  0.41155700  0.61583500  0.23194500  1
  H  169  1  0.32041000  0.94820450  0.99250000  1
  H  170  1  0.42671500  0.95444550  0.97447700  1
  H  171  1  0.16596800  0.06316000  0.93654700  1
  H  172  1  0.27088500  0.07697650  0.91890700  1
  H  173  1  0.43868700  0.93128250  0.86649100  1
  H  174  1  0.43642200  0.93341600  0.82609300  1
  H  175  1  0.57410800  0.05517200  0.86606700  1
  H  176  1  0.57538200  0.05320400  0.82565500  1
  H  177  1  0.74163200  0.91121050  0.91861200  1
  H  178  1  0.84639000  0.92471350  0.93624400  1
  H  179  1  0.69142100  0.03850750  0.99240500  1
  H  180  1  0.58526900  0.03248850  0.97440900  1
  H  181  1  0.50608300  0.99364250  0.95997000  1
  H  182  1  0.38521000  0.01901650  0.89868900  1
  H  183  1  0.62750200  0.96819750  0.89849700  1
  H  208  1  0.69122200  0.26284800  0.96049800  1
  H  209  1  0.58513800  0.37543300  0.97851600  1
  H  210  1  0.84611300  0.22277700  0.01632400  1
  H  211  1  0.74143800  0.34160400  0.03395500  1
  H  212  1  0.57278300  0.36497200  0.08664100  1
  H  213  1  0.57492700  0.36533000  0.12705000  1
  H  214  1  0.44046300  0.62433900  0.08657800  1
  H  215  1  0.43919500  0.62422900  0.12700300  1
  H  216  1  0.27089600  0.64694600  0.03445400  1
  H  217  1  0.16580000  0.76511100  0.01679300  1
  H  218  1  0.32011700  0.72417550  0.96044000  1
  H  219  1  0.42654800  0.61206050  0.97844700  1
  H  220  1  0.50588100  0.49388350  0.99296300  1
  H  221  1  0.62732300  0.39847000  0.05424400  1
  H  222  1  0.38536800  0.59059400  0.05445800  1
  H  247  1  0.05228400  0.67983400  0.29380000  1
  H  248  1  0.04570600  0.57376600  0.31181600  1
  H  249  1  0.93662000  0.83502200  0.34969300  1
  H  250  1  0.92251300  0.73036250  0.36736100  1
  H  251  1  0.06755400  0.56215400  0.41986100  1
  H  252  1  0.06517400  0.56421700  0.46027200  1
  H  253  1  0.94134100  0.42900350  0.42005000  1
  H  254  1  0.94290800  0.42761700  0.46046900  1
  H  255  1  0.08792000  0.25977650  0.36770400  1
  H  256  1  0.07478400  0.15472700  0.35009900  1
  H  257  1  0.96188700  0.30880850  0.29386800  1
  H  258  1  0.96753800  0.41519550  0.31183400  1
  H  259  1  0.00627400  0.49461750  0.32629700  1
  H  260  1  0.97980500  0.61631350  0.38759800  1
  H  261  1  0.02990400  0.37426400  0.38776800  1
  H  286  1  0.27381000  0.04078400  0.62723200  1
  H  287  1  0.38611400  0.03442550  0.64519700  1
  H  288  1  0.23272600  0.92666350  0.68332100  1
  H  289  1  0.35108200  0.91284650  0.70092800  1
  H  290  1  0.37513800  0.05747850  0.75352400  1
  H  291  1  0.37593800  0.05523200  0.79395000  1
  H  292  1  0.63451300  0.93005200  0.75303000  1
  H  293  1  0.63485000  0.93165000  0.79344400  1
  H  294  1  0.65651100  0.07792500  0.70083800  1
  H  295  1  0.77506100  0.06456650  0.68314900  1
  H  296  1  0.73501700  0.95077300  0.62703300  1
  H  297  1  0.62263700  0.95659450  0.64506800  1
  H  298  1  0.50420700  0.99548200  0.65963700  1
  H  299  1  0.40828300  0.96965800  0.72108300  1
  H  300  1  0.60045900  0.01941350  0.72096900  1
  H  1209  1  0.28429200  0.85438350  0.51820100  1
  H  1217  1  0.72750100  0.13278900  0.51790300  1
  H  1219  1  0.93392900  0.85191500  0.51600100  1
  H  1220  1  0.07783800  0.77995050  0.52020500  1
  H  1221  1  0.93386900  0.20725850  0.51999000  1
  H  1222  1  0.07790400  0.13526250  0.51605400  1
  H  1231  1  0.86498900  0.85660750  0.18450400  1
  H  1239  1  0.14350800  0.13489850  0.18489000  1
  H  1241  1  0.86263800  0.20941700  0.18278100  1
  H  1242  1  0.79058700  0.13744750  0.18673700  1
  H  1243  1  0.21788600  0.85401800  0.18675200  1
  H  1244  1  0.14592200  0.78210250  0.18253600  1
  H  1253  1  0.86742200  0.27298350  0.85145900  1
  H  1261  1  0.14589800  0.71619100  0.85133300  1
  H  1263  1  0.22035000  0.92263400  0.84948100  1
  H  1264  1  0.14827800  0.06659000  0.85361500  1
  H  1265  1  0.86497500  0.92258150  0.85323000  1
  H  1266  1  0.79306600  0.06652350  0.84917500  1
  H  1291  1  0.95918700  0.72646600  0.20064900  1
  H  1292  1  0.96532600  0.61406400  0.18266700  1
  H  1293  1  0.07347000  0.76694650  0.14443800  1
  H  1294  1  0.08704200  0.64851200  0.12681900  1
  H  1295  1  0.94135900  0.62572050  0.07453200  1
  H  1296  1  0.94320500  0.62545550  0.03411200  1
  H  1297  1  0.06685400  0.36637200  0.07453500  1
  H  1298  1  0.06470400  0.36662150  0.03412900  1
  H  1299  1  0.92176900  0.34317750  0.12713200  1
  H  1300  1  0.93550500  0.22468600  0.14478800  1
  H  1301  1  0.04945500  0.26516200  0.20074900  1
  H  1302  1  0.04326000  0.37758950  0.18271600  1
  H  1303  1  0.00450000  0.49577150  0.16819600  1
  H  1304  1  0.02931200  0.59195850  0.10673700  1
  H  1305  1  0.97903300  0.40012550  0.10689300  1
  H  1330  1  0.73700100  0.30903500  0.86736100  1
  H  1331  1  0.62487800  0.41527100  0.84934500  1
  H  1332  1  0.77835500  0.15455100  0.81122500  1
  H  1333  1  0.66007300  0.25935900  0.79359100  1
  H  1334  1  0.63700200  0.42729100  0.74105500  1
  H  1335  1  0.63662700  0.42560100  0.70064400  1
  H  1336  1  0.37767600  0.56213400  0.74132400  1
  H  1337  1  0.37784600  0.56396650  0.70091800  1
  H  1338  1  0.35482200  0.73004400  0.79370400  1
  H  1339  1  0.23620200  0.83480950  0.81134500  1
  H  1340  1  0.27586600  0.68009500  0.86738500  1
  H  1341  1  0.38846200  0.57389800  0.84938300  1
  H  1342  1  0.50687400  0.49459700  0.83486800  1
  H  1343  1  0.60314100  0.37360600  0.77345600  1
  H  1344  1  0.41155700  0.61583500  0.77352400  1
  H  1369  1  0.32041000  0.94820450  0.53407900  1
  H  1370  1  0.42671500  0.95444550  0.51605600  1
  H  1371  1  0.16596800  0.06316000  0.47812600  1
  H  1372  1  0.27088500  0.07697650  0.46048600  1
  H  1373  1  0.43868700  0.93128250  0.40807000  1
  H  1374  1  0.43642200  0.93341600  0.36767200  1
  H  1375  1  0.57410800  0.05517200  0.40764600  1
  H  1376  1  0.57538200  0.05320400  0.36723400  1
  H  1377  1  0.74163200  0.91121050  0.46019100  1
  H  1378  1  0.84639000  0.92471350  0.47782300  1
  H  1379  1  0.69142100  0.03850750  0.53398400  1
  H  1380  1  0.58526900  0.03248850  0.51598800  1
  H  1381  1  0.50608300  0.99364250  0.50154900  1
  H  1382  1  0.38521000  0.01901650  0.44026800  1
  H  1383  1  0.62750200  0.96819750  0.44007600  1
  H  1408  1  0.69122200  0.26284800  0.50207700  1
  H  1409  1  0.58513800  0.37543300  0.52009500  1
  H  1410  1  0.84611300  0.22277700  0.55790300  1
  H  1411  1  0.74143800  0.34160400  0.57553400  1
  H  1412  1  0.57278300  0.36497200  0.62822000  1
  H  1413  1  0.57492700  0.36533000  0.66862900  1
  H  1414  1  0.44046300  0.62433900  0.62815700  1
  H  1415  1  0.43919500  0.62422900  0.66858200  1
  H  1416  1  0.27089600  0.64694600  0.57603300  1
  H  1417  1  0.16580000  0.76511100  0.55837200  1
  H  1418  1  0.32011700  0.72417550  0.50201900  1
  H  1419  1  0.42654800  0.61206050  0.52002600  1
  H  1420  1  0.50588100  0.49388350  0.53454200  1
  H  1421  1  0.62732300  0.39847000  0.59582300  1
  H  1422  1  0.38536800  0.59059400  0.59603700  1
  H  1447  1  0.05228400  0.67983400  0.83537900  1
  H  1448  1  0.04570600  0.57376600  0.85339500  1
  H  1449  1  0.93662000  0.83502200  0.89127200  1
  H  1450  1  0.92251300  0.73036250  0.90893980  1
  H  1451  1  0.06755400  0.56215400  0.96143980  1
  H  1452  1  0.06517400  0.56421700  0.00185100  1
  H  1453  1  0.94134100  0.42900350  0.96162880  1
  H  1454  1  0.94290800  0.42761700  0.00204800  1
  H  1455  1  0.08792000  0.25977650  0.90928280  1
  H  1456  1  0.07478400  0.15472700  0.89167800  1
  H  1457  1  0.96188700  0.30880850  0.83544700  1
  H  1458  1  0.96753800  0.41519550  0.85341300  1
  H  1459  1  0.00627400  0.49461750  0.86787600  1
  H  1460  1  0.97980500  0.61631350  0.92917680  1
  H  1461  1  0.02990400  0.37426400  0.92934680  1
  H  1486  1  0.27381000  0.04078400  0.16881100  1
  H  1487  1  0.38611400  0.03442550  0.18677600  1
  H  1488  1  0.23272600  0.92666350  0.22490000  1
  H  1489  1  0.35108200  0.91284650  0.24250700  1
  H  1490  1  0.37513800  0.05747850  0.29510300  1
  H  1491  1  0.37593800  0.05523200  0.33552900  1
  H  1492  1  0.63451300  0.93005200  0.29460900  1
  H  1493  1  0.63485000  0.93165000  0.33502300  1
  H  1494  1  0.65651100  0.07792500  0.24241700  1
  H  1495  1  0.77506100  0.06456650  0.22472800  1
  H  1496  1  0.73501700  0.95077300  0.16861200  1
  H  1497  1  0.62263700  0.95659450  0.18664700  1
  H  1498  1  0.50420700  0.99548200  0.20121600  1
  H  1499  1  0.40828300  0.96965800  0.26266200  1
  H  1500  1  0.60045900  0.01941350  0.26254800  1
