# generated using pymatgen
data_H18C19
_symmetry_space_group_name_H-M   'P 1'
_cell_length_a   17.54520000
_cell_length_b   39.71090000
_cell_length_c   39.71090000
_cell_angle_alpha   120.00000000
_cell_angle_beta   90.00000000
_cell_angle_gamma   90.00000000
_symmetry_Int_Tables_number   1
_chemical_formula_structural   H18C19
_chemical_formula_sum   'H216 C228'
_cell_volume   23961.19175641
_cell_formula_units_Z   12
loop_
 _symmetry_equiv_pos_site_id
 _symmetry_equiv_pos_as_xyz
  1  'x, y, z'
loop_
 _atom_site_type_symbol
 _atom_site_label
 _atom_site_symmetry_multiplicity
 _atom_site_fract_x
 _atom_site_fract_y
 _atom_site_fract_z
 _atom_site_occupancy
  C  1  1  0.80613100  0.56335300  0.45963500  1
  C  2  1  0.74390700  0.53248100  0.45352500  1
  C  3  1  0.76290700  0.60344700  0.47522800  1
  C  4  1  0.69938400  0.60240500  0.44645700  1
  C  7  1  0.64285600  0.56892600  0.43966900  1
  C  8  1  0.67967500  0.52756000  0.42371700  1
  C  13  1  0.71975400  0.51731400  0.38421800  1
  C  14  1  0.77954300  0.54924300  0.38818300  1
  C  17  1  0.73618200  0.58920500  0.40568600  1
  C  20  1  0.84065400  0.55301600  0.41880700  1
  C  23  1  0.47261100  0.88782000  0.42995300  1
  C  24  1  0.41021300  0.91252800  0.46075000  1
  C  25  1  0.42956900  0.86329400  0.38980100  1
  C  26  1  0.36604200  0.83552100  0.39076200  1
  C  29  1  0.30937900  0.86215600  0.42418700  1
  C  30  1  0.34603600  0.88756800  0.46558900  1
  C  35  1  0.38611800  0.85833400  0.47585700  1
  C  36  1  0.44605100  0.83043400  0.44398500  1
  C  39  1  0.40283500  0.80796000  0.40397700  1
  C  42  1  0.50714500  0.85734800  0.44030900  1
  C  45  1  0.13961800  0.53348000  0.10534500  1
  C  46  1  0.07736700  0.53955100  0.08057000  1
  C  47  1  0.09643800  0.51789100  0.12986600  1
  C  48  1  0.03288500  0.54664800  0.15758200  1
  C  51  1  0.97633200  0.55340200  0.13087900  1
  C  52  1  0.01311000  0.56934700  0.10544900  1
  C  57  1  0.05315300  0.60886500  0.13468800  1
  C  58  1  0.11296100  0.60493500  0.16266500  1
  C  61  1  0.06963600  0.58743700  0.18514000  1
  C  64  1  0.17409700  0.57432400  0.13582800  1
  C  67  1  0.30601400  0.42654400  0.53696000  1
  C  68  1  0.24365200  0.45736100  0.54306500  1
  C  69  1  0.26293100  0.38640800  0.52136800  1
  C  70  1  0.19944900  0.38740300  0.55013800  1
  C  73  1  0.14280100  0.42083500  0.55692600  1
  C  74  1  0.17949200  0.46222900  0.57288300  1
  C  79  1  0.21961700  0.47250700  0.61237800  1
  C  80  1  0.27953600  0.44062900  0.60840800  1
  C  83  1  0.23628500  0.40063400  0.59090700  1
  C  86  1  0.34059000  0.43691100  0.57778400  1
  C  89  1  0.97303100  0.10197800  0.56679600  1
  C  90  1  0.91088400  0.07718400  0.53589300  1
  C  91  1  0.92972700  0.12647500  0.60686700  1
  C  92  1  0.86619300  0.15417400  0.60577900  1
  C  95  1  0.80973200  0.12745300  0.57228000  1
  C  96  1  0.84662500  0.10203300  0.53092900  1
  C  101  1  0.88669300  0.13129000  0.52068400  1
  C  102  1  0.94641500  0.15928900  0.55263700  1
  C  105  1  0.90298800  0.18174700  0.59258000  1
  C  108  1  0.00754200  0.13247500  0.55646000  1
  C  111  1  0.63940300  0.45611700  0.89115100  1
  C  112  1  0.57706200  0.45002300  0.91587900  1
  C  113  1  0.59630300  0.47174600  0.86664400  1
  C  114  1  0.53276400  0.44301000  0.83888500  1
  C  117  1  0.47614400  0.43621900  0.86553600  1
  C  118  1  0.51284800  0.42023300  0.89094500  1
  C  123  1  0.55290400  0.38072900  0.86169700  1
  C  124  1  0.61279000  0.38469500  0.83377400  1
  C  127  1  0.56954200  0.40223400  0.81131300  1
  C  130  1  0.67390700  0.41528700  0.86066700  1
  C  133  1  0.99388300  0.53267000  0.18304800  1
  C  134  1  0.91341700  0.53262400  0.18769500  1
  C  135  1  0.87802600  0.52956000  0.21816600  1
  C  136  1  0.92434000  0.52415100  0.24449800  1
  C  137  1  0.00378300  0.51988200  0.23783300  1
  C  138  1  0.03748400  0.52445700  0.20819000  1
  C  140  1  0.89481600  0.52896700  0.28032800  1
  C  141  1  0.84553300  0.50061000  0.27993500  1
  C  142  1  0.80849600  0.50659900  0.31401600  1
  C  143  1  0.81985100  0.54079200  0.35046000  1
  C  144  1  0.87239300  0.56804100  0.35037300  1
  C  145  1  0.90824500  0.56353400  0.31641600  1
  C  150  1  0.79387800  0.53495400  0.22347900  1
  C  155  1  0.95638100  0.59589500  0.31937700  1
  C  159  1  0.66032500  0.64183900  0.46043700  1
  C  160  1  0.57986300  0.64650800  0.46045900  1
  C  161  1  0.54446400  0.68006300  0.46358400  1
  C  162  1  0.59077200  0.71183600  0.46908600  1
  C  163  1  0.67020800  0.70949000  0.47343900  1
  C  164  1  0.70392500  0.67521700  0.46872400  1
  C  166  1  0.56131300  0.74287300  0.46428700  1
  C  167  1  0.51190200  0.77078900  0.49260500  1
  C  168  1  0.47489600  0.79889000  0.48661800  1
  C  169  1  0.48636300  0.80117600  0.45245200  1
  C  170  1  0.53901000  0.77388100  0.42523800  1
  C  171  1  0.57486100  0.74443300  0.42975000  1
  C  176  1  0.46032300  0.67999200  0.45818000  1
  C  181  1  0.62311300  0.71507600  0.39741900  1
  C  185  1  0.32709900  0.81007600  0.35129300  1
  C  186  1  0.24665000  0.80539100  0.34655900  1
  C  187  1  0.21131000  0.77496200  0.31298000  1
  C  188  1  0.25765000  0.74866800  0.28123400  1
  C  189  1  0.33710800  0.75534500  0.28368300  1
  C  190  1  0.37075200  0.78494500  0.31795600  1
  C  192  1  0.22820600  0.71282300  0.25020800  1
  C  193  1  0.17889900  0.71319300  0.22224100  1
  C  194  1  0.14189200  0.67910000  0.19415000  1
  C  195  1  0.15325700  0.64267000  0.19192400  1
  C  196  1  0.20582100  0.64277600  0.21926400  1
  C  197  1  0.24166800  0.67674400  0.24870500  1
  C  202  1  0.12715000  0.76964900  0.31299700  1
  C  207  1  0.28977600  0.67380300  0.27812400  1
  C  211  1  0.49382500  0.45702500  0.81343300  1
  C  212  1  0.41336800  0.45708500  0.80878000  1
  C  213  1  0.37800500  0.46025500  0.77836800  1
  C  214  1  0.42433400  0.46573500  0.75208700  1
  C  215  1  0.50379200  0.46996700  0.75875900  1
  C  216  1  0.53746500  0.46533900  0.78837700  1
  C  218  1  0.39487800  0.46094100  0.71625400  1
  C  219  1  0.34555400  0.48928300  0.71664800  1
  C  220  1  0.30849600  0.48328600  0.68257000  1
  C  221  1  0.31990100  0.44910600  0.64612400  1
  C  222  1  0.37254700  0.42189000  0.64620100  1
  C  223  1  0.40840300  0.42639600  0.68015700  1
  C  228  1  0.29384800  0.45491900  0.77305800  1
  C  233  1  0.45656600  0.39403500  0.67718200  1
  C  237  1  0.16052400  0.34793700  0.53616800  1
  C  238  1  0.08006300  0.34319100  0.53603900  1
  C  239  1  0.04473700  0.30962800  0.53294200  1
  C  240  1  0.09111500  0.27791700  0.52756000  1
  C  241  1  0.17056100  0.28036000  0.52333000  1
  C  242  1  0.20420500  0.31460000  0.52792900  1
  C  244  1  0.06163600  0.24688700  0.53236600  1
  C  245  1  0.01242100  0.21889300  0.50399300  1
  C  246  1  0.97540300  0.19079200  0.50997800  1
  C  247  1  0.98671100  0.18856600  0.54418600  1
  C  248  1  0.03919200  0.21593100  0.57145500  1
  C  249  1  0.07501900  0.24538800  0.56694900  1
  C  254  1  0.96058200  0.30965000  0.53827400  1
  C  259  1  0.12307800  0.27481900  0.59932900  1
  C  263  1  0.82708300  0.17963000  0.64519900  1
  C  264  1  0.74661500  0.18426000  0.64984000  1
  C  265  1  0.71117200  0.21468800  0.68337900  1
  C  266  1  0.75744100  0.24097800  0.71515900  1
  C  267  1  0.83688100  0.23429700  0.71284000  1
  C  268  1  0.87063900  0.20473700  0.67858400  1
  C  270  1  0.72795200  0.27681400  0.74618000  1
  C  271  1  0.67857400  0.27642200  0.77411300  1
  C  272  1  0.64160100  0.31051200  0.80222100  1
  C  273  1  0.65306500  0.34696200  0.80450200  1
  C  274  1  0.70566900  0.34687300  0.77718800  1
  C  275  1  0.74148800  0.31290800  0.74773000  1
  C  280  1  0.62702900  0.21999900  0.68328500  1
  C  285  1  0.78969900  0.31586800  0.71835200  1
  C  289  1  0.12090300  0.49276700  0.57639100  1
  C  290  1  0.14406900  0.52840100  0.57912900  1
  C  291  1  0.09621600  0.55024100  0.56819800  1
  C  292  1  0.01874700  0.53890700  0.55848500  1
  C  293  1  0.99140800  0.50781500  0.56276200  1
  C  294  1  0.04124900  0.48531400  0.57114600  1
  C  296  1  0.97237600  0.55016500  0.53606700  1
  C  297  1  0.96738100  0.52313200  0.49595500  1
  C  298  1  0.91545300  0.52836300  0.47219500  1
  C  299  1  0.86785600  0.56166400  0.48616000  1
  C  300  1  0.87560400  0.58934000  0.52639700  1
  C  301  1  0.92543500  0.58388100  0.55161200  1
  C  306  1  0.13211200  0.58219000  0.56449500  1
  C  311  1  0.92537000  0.61225000  0.59405800  1
  C  315  1  0.78814300  0.07493900  0.50034500  1
  C  316  1  0.81142100  0.04189300  0.46485100  1
  C  317  1  0.76356800  0.00907800  0.44316700  1
  C  318  1  0.68597300  0.01084700  0.45437200  1
  C  319  1  0.65860300  0.04635100  0.48524700  1
  C  320  1  0.70840100  0.07730000  0.50762300  1
  C  322  1  0.63935700  0.97725900  0.44319100  1
  C  323  1  0.63372900  0.96442200  0.47039700  1
  C  324  1  0.58156200  0.93552400  0.46517700  1
  C  325  1  0.53435300  0.91606900  0.43173800  1
  C  326  1  0.54287300  0.92830700  0.40385500  1
  C  327  1  0.59293800  0.95889200  0.40929100  1
  C  332  1  0.79958100  0.97325600  0.41151200  1
  C  337  1  0.59366400  0.97266000  0.38067800  1
  C  341  1  0.45426900  0.41675200  0.91799600  1
  C  342  1  0.47750000  0.41386200  0.95080200  1
  C  343  1  0.42974800  0.42489200  0.98363400  1
  C  344  1  0.35237100  0.43478400  0.98208700  1
  C  345  1  0.32489300  0.43047600  0.94673900  1
  C  346  1  0.37461400  0.42199400  0.91579100  1
  C  348  1  0.30614500  0.45714600  0.01583600  1
  C  349  1  0.30104400  0.49725900  0.02891800  1
  C  350  1  0.24898700  0.52097400  0.05785600  1
  C  351  1  0.20139000  0.50697000  0.07715700  1
  C  352  1  0.20914400  0.46672800  0.06455600  1
  C  353  1  0.25906600  0.44154900  0.03391100  1
  C  358  1  0.46575400  0.42857900  0.01925700  1
  C  363  1  0.25901800  0.39909500  0.01978100  1
  C  367  1  0.62118000  0.49698300  0.42021700  1
  C  368  1  0.64444600  0.46142000  0.41762200  1
  C  369  1  0.59664900  0.43965500  0.42866800  1
  C  370  1  0.51913500  0.45094000  0.43824300  1
  C  371  1  0.49161200  0.48183800  0.43369900  1
  C  372  1  0.54147800  0.50434900  0.42533800  1
  C  374  1  0.47268300  0.43969000  0.46065200  1
  C  375  1  0.46715400  0.46688300  0.50071000  1
  C  376  1  0.41510000  0.46166600  0.52443100  1
  C  377  1  0.36770300  0.42829800  0.51045800  1
  C  378  1  0.37585900  0.40050500  0.47028400  1
  C  379  1  0.42591200  0.40591300  0.44511200  1
  C  384  1  0.63263700  0.40786300  0.43260600  1
  C  389  1  0.42633400  0.37739100  0.40270800  1
  C  393  1  0.28744200  0.91460200  0.49611800  1
  C  394  1  0.31062700  0.94738700  0.53182800  1
  C  395  1  0.26280200  0.98015400  0.55373200  1
  C  396  1  0.18536800  0.97860500  0.54237800  1
  C  397  1  0.15799900  0.94329700  0.51121000  1
  C  398  1  0.20780200  0.91241500  0.48865000  1
  C  400  1  0.13912200  0.01232900  0.55366800  1
  C  401  1  0.13441400  0.02551000  0.52670700  1
  C  402  1  0.08254500  0.05451500  0.53192400  1
  C  403  1  0.03475200  0.07378600  0.56515800  1
  C  404  1  0.04222700  0.06112500  0.59276700  1
  C  405  1  0.09197000  0.03042200  0.58730900  1
  C  410  1  0.29868700  0.01573300  0.58578600  1
  C  415  1  0.09159600  0.01622900  0.61558400  1
  C  419  1  0.95457000  0.57279500  0.07835700  1
  C  420  1  0.97780800  0.57547600  0.04543500  1
  C  421  1  0.92998200  0.56439400  0.01262100  1
  C  422  1  0.85245600  0.55479300  0.01429900  1
  C  423  1  0.82508900  0.55923400  0.04973100  1
  C  424  1  0.87486300  0.56776500  0.08067800  1
  C  426  1  0.80597100  0.53238600  0.98065900  1
  C  427  1  0.80065000  0.49230400  0.96768900  1
  C  428  1  0.74854800  0.46860300  0.93876600  1
  C  429  1  0.70114000  0.48260000  0.91939300  1
  C  430  1  0.70935800  0.52276900  0.93176400  1
  C  431  1  0.75932500  0.54793900  0.96239200  1
  C  436  1  0.96595100  0.56046300  0.97689000  1
  C  441  1  0.75969600  0.59035200  0.97631500  1
  H  5  1  0.80527000  0.62578000  0.48070700  1
  H  6  1  0.73551300  0.61186600  0.50308200  1
  H  9  1  0.61344600  0.57730100  0.46709500  1
  H  10  1  0.60035300  0.56640900  0.41837000  1
  H  11  1  0.71788400  0.54016900  0.48156500  1
  H  12  1  0.77264800  0.50472100  0.44335700  1
  H  15  1  0.67585100  0.51371200  0.36308800  1
  H  16  1  0.74847500  0.48924100  0.37285600  1
  H  18  1  0.69223700  0.58706000  0.38508800  1
  H  19  1  0.77510700  0.61205100  0.40897100  1
  H  21  1  0.87124900  0.52543900  0.40538200  1
  H  22  1  0.88293200  0.57528800  0.42383900  1
  H  27  1  0.47201200  0.84645700  0.36751200  1
  H  28  1  0.40224500  0.88273100  0.38136100  1
  H  31  1  0.28000900  0.88120300  0.41579300  1
  H  32  1  0.26685500  0.84335200  0.42665900  1
  H  33  1  0.38417800  0.93284400  0.45301700  1
  H  34  1  0.43874800  0.93016600  0.48855900  1
  H  37  1  0.34222600  0.84076200  0.47940100  1
  H  38  1  0.41473000  0.87505100  0.50396000  1
  H  40  1  0.35890300  0.78946800  0.40606600  1
  H  41  1  0.44185000  0.78843700  0.38116500  1
  H  43  1  0.53763700  0.87153000  0.46791900  1
  H  44  1  0.54952400  0.84015000  0.41808000  1
  H  49  1  0.13882000  0.51243500  0.14672700  1
  H  50  1  0.06907700  0.49002400  0.11043700  1
  H  53  1  0.94694900  0.52596600  0.11183800  1
  H  54  1  0.93381200  0.57469400  0.14965300  1
  H  55  1  0.05137200  0.51149900  0.06023000  1
  H  56  1  0.10607600  0.54971200  0.06296500  1
  H  59  1  0.00923500  0.62998700  0.15220800  1
  H  60  1  0.08185000  0.62022000  0.11796600  1
  H  62  1  0.02567000  0.60802600  0.20358300  1
  H  63  1  0.10857000  0.58417800  0.20471000  1
  H  65  1  0.20466700  0.58775200  0.12167300  1
  H  66  1  0.21638800  0.56931200  0.15307800  1
  H  71  1  0.30536700  0.36411200  0.51590300  1
  H  72  1  0.23555000  0.37796400  0.49350500  1
  H  75  1  0.11340000  0.41243600  0.52949300  1
  H  76  1  0.10030200  0.42331900  0.57821400  1
  H  77  1  0.21759100  0.44963500  0.51502300  1
  H  78  1  0.27225200  0.48515300  0.55322200  1
  H  81  1  0.17575000  0.47607300  0.63351200  1
  H  82  1  0.24824800  0.50060200  0.62374000  1
  H  84  1  0.19237600  0.40275100  0.61151000  1
  H  85  1  0.27529000  0.37781900  0.58762300  1
  H  87  1  0.37110500  0.46451200  0.59119800  1
  H  88  1  0.38295200  0.41467300  0.57274900  1
  H  93  1  0.97204600  0.14334200  0.62921800  1
  H  94  1  0.90231000  0.10703800  0.61527800  1
  H  97  1  0.78030500  0.10840200  0.58065000  1
  H  98  1  0.76723600  0.14622600  0.56974500  1
  H  99  1  0.88487500  0.05681700  0.54356300  1
  H  100  1  0.93972200  0.05961700  0.50815800  1
  H  103  1  0.84278000  0.14879600  0.51705300  1
  H  104  1  0.91546100  0.11457800  0.49262600  1
  H  106  1  0.85902900  0.20017600  0.59040400  1
  H  107  1  0.94186600  0.20132700  0.61543700  1
  H  109  1  0.03818300  0.11833200  0.52889700  1
  H  110  1  0.04977000  0.14973900  0.57874800  1
  H  115  1  0.63872400  0.47720700  0.84980500  1
  H  116  1  0.56896100  0.49961600  0.88608500  1
  H  119  1  0.44677300  0.46365700  0.88458800  1
  H  120  1  0.43362000  0.41494400  0.84674200  1
  H  121  1  0.55104600  0.47806900  0.93621400  1
  H  122  1  0.60567200  0.43984700  0.93349600  1
  H  125  1  0.50899500  0.35961600  0.84414000  1
  H  126  1  0.58154500  0.36934300  0.87840600  1
  H  128  1  0.52559700  0.38165300  0.79283200  1
  H  129  1  0.60852800  0.40552200  0.79177800  1
  H  131  1  0.70442300  0.40184900  0.87482900  1
  H  132  1  0.71625500  0.42031300  0.84345100  1
  H  139  1  0.09564000  0.52446100  0.20710600  1
  H  146  1  0.83434800  0.47560300  0.25434100  1
  H  147  1  0.77231500  0.48533700  0.31144500  1
  H  148  1  0.88415300  0.59277900  0.37592800  1
  H  149  1  0.87855900  0.53755700  0.17013600  1
  H  151  1  0.76692900  0.54063600  0.20203100  1
  H  152  1  0.78106300  0.55952200  0.25221900  1
  H  153  1  0.76779700  0.50878000  0.22075600  1
  H  154  1  0.03870700  0.51649400  0.25659600  1
  H  156  1  0.93537900  0.60513500  0.29939100  1
  H  157  1  0.01530500  0.58626900  0.31205900  1
  H  158  1  0.95632600  0.62139900  0.34851000  1
  H  165  1  0.76207900  0.67413100  0.46871300  1
  H  172  1  0.50066900  0.77018400  0.51760000  1
  H  173  1  0.43864500  0.81755200  0.50785600  1
  H  174  1  0.55086000  0.77473000  0.40052500  1
  H  175  1  0.54502800  0.62401000  0.45553900  1
  H  177  1  0.43338100  0.65283300  0.45242600  1
  H  178  1  0.44752500  0.68423300  0.43365500  1
  H  179  1  0.43422200  0.70339800  0.48437800  1
  H  180  1  0.70513900  0.73161500  0.47676500  1
  H  182  1  0.60215500  0.68583400  0.38813800  1
  H  183  1  0.68200700  0.71740800  0.40709300  1
  H  184  1  0.62313600  0.71872900  0.37193000  1
  H  191  1  0.42891000  0.78603100  0.31906300  1
  H  198  1  0.16775700  0.73877400  0.22278900  1
  H  199  1  0.10573400  0.68165100  0.17543900  1
  H  200  1  0.21757600  0.61723400  0.21847300  1
  H  201  1  0.21173400  0.82297800  0.36901300  1
  H  203  1  0.10015400  0.79106700  0.34012900  1
  H  204  1  0.11428300  0.74089000  0.30876300  1
  H  205  1  0.10115700  0.77243000  0.28956200  1
  H  206  1  0.37208600  0.73656800  0.26157100  1
  H  208  1  0.26875300  0.69379800  0.30734300  1
  H  209  1  0.34870600  0.68112000  0.27582200  1
  H  210  1  0.28972100  0.64467700  0.27451100  1
  H  217  1  0.59562200  0.46524400  0.78940500  1
  H  224  1  0.33430600  0.51427300  0.74224900  1
  H  225  1  0.27225000  0.50452600  0.68514700  1
  H  226  1  0.38433400  0.39715800  0.62064400  1
  H  227  1  0.37847500  0.45218300  0.82634900  1
  H  229  1  0.26686900  0.44917400  0.79446000  1
  H  230  1  0.28098400  0.43040700  0.74428900  1
  H  231  1  0.26783200  0.48113800  0.77586400  1
  H  232  1  0.53871400  0.47334500  0.73999000  1
  H  234  1  0.43557500  0.38477800  0.69715700  1
  H  235  1  0.51548400  0.40367300  0.68450800  1
  H  236  1  0.45653100  0.36854100  0.64804700  1
  H  243  1  0.26235800  0.31572400  0.52795500  1
  H  250  1  0.00126700  0.21946400  0.47897500  1
  H  251  1  0.93926800  0.17208300  0.48870400  1
  H  252  1  0.05091800  0.21513400  0.59620600  1
  H  253  1  0.04516200  0.36566500  0.54095700  1
  H  255  1  0.93357300  0.33676500  0.54394200  1
  H  256  1  0.94771900  0.30546500  0.56283000  1
  H  257  1  0.93458900  0.28618600  0.51208000  1
  H  258  1  0.20552200  0.25822200  0.51994700  1
  H  260  1  0.10202600  0.30403300  0.60854900  1
  H  261  1  0.18201700  0.27253700  0.58973100  1
  H  262  1  0.12299800  0.27120000  0.62483700  1
  H  269  1  0.92879700  0.20367800  0.67751600  1
  H  276  1  0.66735300  0.25082400  0.77351600  1
  H  277  1  0.60537500  0.30794300  0.82089600  1
  H  278  1  0.71751500  0.37243300  0.77802900  1
  H  279  1  0.71180900  0.16666800  0.62733100  1
  H  281  1  0.60011500  0.19857800  0.65613000  1
  H  282  1  0.61421100  0.24875600  0.68750600  1
  H  283  1  0.60091900  0.21722400  0.70670000  1
  H  284  1  0.87178400  0.25311100  0.73497200  1
  H  286  1  0.76870900  0.29590300  0.68911800  1
  H  287  1  0.84859900  0.30852500  0.72066900  1
  H  288  1  0.78971500  0.34500900  0.72199800  1
  H  295  1  0.01790400  0.46137500  0.57019100  1
  H  302  1  0.99842300  0.49787200  0.48392500  1
  H  303  1  0.91088800  0.50582100  0.44439000  1
  H  304  1  0.84124600  0.61324500  0.53837500  1
  H  305  1  0.19970300  0.53680500  0.58533400  1
  H  307  1  0.15518300  0.60394900  0.59259900  1
  H  308  1  0.09253400  0.59684300  0.55491800  1
  H  309  1  0.17860900  0.57056300  0.54342900  1
  H  310  1  0.93635400  0.49831600  0.55530800  1
  H  312  1  0.98219700  0.62453200  0.60344400  1
  H  313  1  0.90870000  0.59765500  0.61003300  1
  H  314  1  0.88585700  0.63629800  0.60191800  1
  H  321  1  0.68499900  0.10035800  0.53146400  1
  H  328  1  0.66429100  0.97784000  0.49580400  1
  H  329  1  0.57644900  0.93045000  0.48782500  1
  H  330  1  0.50890900  0.91621600  0.37980100  1
  H  331  1  0.86715000  0.03953700  0.45656900  1
  H  333  1  0.82289900  0.97930400  0.38959600  1
  H  334  1  0.76002300  0.94899700  0.39698500  1
  H  335  1  0.84591400  0.96400400  0.42340200  1
  H  336  1  0.60340800  0.04848800  0.49459800  1
  H  338  1  0.65071500  0.96963700  0.36858900  1
  H  339  1  0.57708200  0.00323100  0.39500300  1
  H  340  1  0.55446100  0.95635600  0.35651100  1
  H  347  1  0.35125100  0.42291900  0.89279700  1
  H  354  1  0.33189800  0.50929000  0.01563100  1
  H  355  1  0.24423900  0.54874800  0.06304800  1
  H  356  1  0.17477800  0.45473400  0.07646400  1
  H  357  1  0.53315600  0.40769900  0.95299300  1
  H  359  1  0.48867000  0.40044500  0.01291100  1
  H  360  1  0.42628900  0.43824000  0.04354100  1
  H  361  1  0.51238100  0.44956500  0.02861500  1
  H  362  1  0.26978400  0.43788800  0.94472600  1
  H  364  1  0.31582500  0.38971800  0.02272700  1
  H  365  1  0.24248100  0.38314700  0.98919300  1
  H  366  1  0.21941700  0.39119300  0.03590300  1
  H  373  1  0.51809800  0.52820800  0.42614400  1
  H  380  1  0.49796800  0.49221200  0.51270700  1
  H  381  1  0.41017000  0.48429600  0.55217100  1
  H  382  1  0.34177800  0.37649300  0.45832600  1
  H  383  1  0.70012500  0.45309200  0.41151300  1
  H  385  1  0.65581600  0.38602000  0.40456800  1
  H  386  1  0.59309800  0.39327700  0.44227800  1
  H  387  1  0.67907200  0.41963000  0.45369800  1
  H  388  1  0.43653600  0.49131100  0.44111600  1
  H  390  1  0.48326800  0.36517700  0.39353200  1
  H  391  1  0.40984000  0.39183000  0.38656000  1
  H  392  1  0.38691600  0.35330500  0.39484200  1
  H  399  1  0.18445600  0.88948800  0.46466200  1
  H  406  1  0.16559600  0.01232300  0.50149100  1
  H  407  1  0.07815400  0.05982300  0.50940800  1
  H  408  1  0.00769900  0.07298500  0.61661000  1
  H  409  1  0.36624900  0.94953300  0.54023700  1
  H  411  1  0.32168500  0.00926900  0.60747500  1
  H  412  1  0.25911500  0.03995800  0.60050300  1
  H  413  1  0.34523500  0.02523600  0.57424900  1
  H  414  1  0.10296400  0.94130900  0.50170000  1
  H  416  1  0.14833800  0.01908400  0.62794400  1
  H  417  1  0.07489900  0.98566400  0.60089200  1
  H  418  1  0.05196400  0.03237600  0.63958800  1
  H  425  1  0.85150000  0.56683300  0.10366500  1
  H  432  1  0.83135300  0.48030100  0.98104800  1
  H  433  1  0.74361400  0.44085300  0.93362700  1
  H  434  1  0.67521700  0.53474700  0.91975600  1
  H  435  1  0.03350600  0.58150000  0.04314600  1
  H  437  1  0.98907500  0.58850800  0.98308000  1
  H  438  1  0.92641400  0.55076900  0.95262800  1
  H  439  1  0.01241800  0.53939000  0.96757000  1
  H  440  1  0.76994900  0.55190200  0.05179700  1
  H  442  1  0.81664600  0.59956500  0.97335000  1
  H  443  1  0.74307200  0.60646700  0.00688400  1
  H  444  1  0.72035200  0.59822300  0.96006900  1
