# generated using pymatgen
data_CuH9C10N2Cl
_symmetry_space_group_name_H-M   'P 1'
_cell_length_a   12.46111000
_cell_length_b   15.87633000
_cell_length_c   15.87633000
_cell_angle_alpha   89.99954000
_cell_angle_beta   89.99908000
_cell_angle_gamma   89.99908000
_symmetry_Int_Tables_number   1
_chemical_formula_structural   CuH9C10N2Cl
_chemical_formula_sum   'Cu8 H72 C80 N16 Cl8'
_cell_volume   3140.92064750
_cell_formula_units_Z   8
loop_
 _symmetry_equiv_pos_site_id
 _symmetry_equiv_pos_as_xyz
  1  'x, y, z'
loop_
 _atom_site_type_symbol
 _atom_site_label
 _atom_site_symmetry_multiplicity
 _atom_site_fract_x
 _atom_site_fract_y
 _atom_site_fract_z
 _atom_site_occupancy
  Cu  Cu0  1  0.37634000  0.51873000  0.99767000  1
  Cu  Cu1  1  0.87646000  0.48123000  0.00235000  1
  Cu  Cu2  1  0.12651000  0.49765000  0.98125000  1
  Cu  Cu3  1  0.62628000  0.50234000  0.01875000  1
  Cu  Cu4  1  0.37372000  0.98125000  0.49766000  1
  Cu  Cu5  1  0.87349000  0.01875000  0.50235000  1
  Cu  Cu6  1  0.62365000  0.00233000  0.48127000  1
  Cu  Cu7  1  0.12353000  0.99765000  0.51877000  1
  H  H8  1  0.75421000  0.59416000  0.17708000  1
  H  H9  1  0.75985000  0.62245000  0.07017000  1
  H  H10  1  0.23864000  0.70854000  0.28316000  1
  H  H11  1  0.24738000  0.64231000  0.05297000  1
  H  H12  1  0.23905000  0.59969000  0.15329000  1
  H  H13  1  0.86938000  0.71968000  0.16142000  1
  H  H14  1  0.76695000  0.77464000  0.10764000  1
  H  H15  1  0.13333000  0.72935000  0.15252000  1
  H  H16  1  0.23935000  0.78852000  0.10802000  1
  H  H17  1  0.25420000  0.40586000  0.82288000  1
  H  H18  1  0.25984000  0.37758000  0.92978000  1
  H  H19  1  0.73863000  0.29149000  0.71683000  1
  H  H20  1  0.74737000  0.35769000  0.94703000  1
  H  H21  1  0.73902000  0.40033000  0.84672000  1
  H  H22  1  0.36937000  0.28035000  0.83855000  1
  H  H23  1  0.26694000  0.22539000  0.89234000  1
  H  H24  1  0.63334000  0.27066000  0.84748000  1
  H  H25  1  0.73937000  0.21149000  0.89197000  1
  H  H26  1  0.50421000  0.67710000  0.90584000  1
  H  H27  1  0.50987000  0.57020000  0.87755000  1
  H  H28  1  0.98865000  0.78317000  0.79148000  1
  H  H29  1  0.99739000  0.55297000  0.85769000  1
  H  H30  1  0.98906000  0.65329000  0.90031000  1
  H  H31  1  0.61940000  0.66144000  0.78033000  1
  H  H32  1  0.51697000  0.60766000  0.72536000  1
  H  H33  1  0.88336000  0.65253000  0.77065000  1
  H  H34  1  0.98939000  0.60804000  0.71148000  1
  H  H35  1  0.00420000  0.32291000  0.09413000  1
  H  H36  1  0.00982000  0.42981000  0.12243000  1
  H  H37  1  0.48862000  0.21685000  0.20851000  1
  H  H38  1  0.49736000  0.44703000  0.14230000  1
  H  H39  1  0.48901000  0.34672000  0.09968000  1
  H  H40  1  0.11935000  0.33857000  0.21966000  1
  H  H41  1  0.01692000  0.39235000  0.27461000  1
  H  H42  1  0.38331000  0.34749000  0.22934000  1
  H  H43  1  0.48934000  0.39199000  0.28850000  1
  H  H44  1  0.99580000  0.90587000  0.67709000  1
  H  H45  1  0.99018000  0.87757000  0.57019000  1
  H  H46  1  0.51138000  0.79149000  0.78316000  1
  H  H47  1  0.50264000  0.85770000  0.55297000  1
  H  H48  1  0.51098000  0.90032000  0.65328000  1
  H  H49  1  0.88065000  0.78034000  0.66143000  1
  H  H50  1  0.98308000  0.72539000  0.60765000  1
  H  H51  1  0.61669000  0.77066000  0.65251000  1
  H  H52  1  0.51066000  0.71150000  0.60801000  1
  H  H53  1  0.49579000  0.09416000  0.32290000  1
  H  H54  1  0.49013000  0.12245000  0.42980000  1
  H  H55  1  0.01135000  0.20852000  0.21683000  1
  H  H56  1  0.00261000  0.14231000  0.44703000  1
  H  H57  1  0.01094000  0.09969000  0.34671000  1
  H  H58  1  0.38060000  0.21967000  0.33856000  1
  H  H59  1  0.48303000  0.27464000  0.39234000  1
  H  H60  1  0.11664000  0.22935000  0.34747000  1
  H  H61  1  0.01061000  0.28852000  0.39196000  1
  H  H62  1  0.24579000  0.82292000  0.40584000  1
  H  H63  1  0.24015000  0.92983000  0.37755000  1
  H  H64  1  0.76136000  0.71684000  0.29146000  1
  H  H65  1  0.75261000  0.94703000  0.35769000  1
  H  H66  1  0.76095000  0.84671000  0.40031000  1
  H  H67  1  0.13062000  0.83858000  0.28032000  1
  H  H68  1  0.23305000  0.89236000  0.22536000  1
  H  H69  1  0.86667000  0.84748000  0.27065000  1
  H  H70  1  0.76065000  0.89198000  0.21149000  1
  H  H71  1  0.74580000  0.17712000  0.59414000  1
  H  H72  1  0.74016000  0.07022000  0.62242000  1
  H  H73  1  0.26137000  0.28317000  0.70851000  1
  H  H74  1  0.25263000  0.05297000  0.64231000  1
  H  H75  1  0.26098000  0.15328000  0.59967000  1
  H  H76  1  0.63063000  0.16145000  0.71965000  1
  H  H77  1  0.73306000  0.10766000  0.77461000  1
  H  H78  1  0.36666000  0.15252000  0.72934000  1
  H  H79  1  0.26063000  0.10803000  0.78851000  1
  C  C80  1  0.39066000  0.65374000  0.12536000  1
  C  C81  1  0.44293000  0.70849000  0.18379000  1
  C  C82  1  0.38422000  0.76078000  0.23873000  1
  C  C83  1  0.55777000  0.70753000  0.18521000  1
  C  C84  1  0.61077000  0.64932000  0.13076000  1
  C  C85  1  0.73080000  0.64370000  0.13198000  1
  C  C86  1  0.26307000  0.75909000  0.23929000  1
  C  C87  1  0.27072000  0.65443000  0.11855000  1
  C  C88  1  0.78200000  0.72772000  0.15722000  1
  C  C89  1  0.22102000  0.73635000  0.15127000  1
  C  C90  1  0.89066000  0.34630000  0.87462000  1
  C  C91  1  0.94292000  0.29154000  0.81619000  1
  C  C92  1  0.88422000  0.23925000  0.76124000  1
  C  C93  1  0.05777000  0.29250000  0.81475000  1
  C  C94  1  0.11077000  0.35071000  0.86920000  1
  C  C95  1  0.23080000  0.35633000  0.86798000  1
  C  C96  1  0.76307000  0.24093000  0.76070000  1
  C  C97  1  0.77071000  0.34558000  0.88145000  1
  C  C98  1  0.28199000  0.27230000  0.84275000  1
  C  C99  1  0.72102000  0.26366000  0.84873000  1
  C  C100  1  0.14068000  0.62537000  0.84627000  1
  C  C101  1  0.19294000  0.68381000  0.79152000  1
  C  C102  1  0.13424000  0.73875000  0.73924000  1
  C  C103  1  0.30779000  0.68523000  0.79248000  1
  C  C104  1  0.36079000  0.63077000  0.85068000  1
  C  C105  1  0.48082000  0.63200000  0.85630000  1
  C  C106  1  0.01309000  0.73931000  0.74092000  1
  C  C107  1  0.02073000  0.61856000  0.84557000  1
  C  C108  1  0.53202000  0.65724000  0.77228000  1
  C  C109  1  0.97104000  0.65128000  0.76366000  1
  C  C110  1  0.64064000  0.37463000  0.15371000  1
  C  C111  1  0.69290000  0.31620000  0.20846000  1
  C  C112  1  0.63420000  0.26126000  0.26076000  1
  C  C113  1  0.80775000  0.31477000  0.20750000  1
  C  C114  1  0.86075000  0.36921000  0.14928000  1
  C  C115  1  0.98078000  0.36800000  0.14367000  1
  C  C116  1  0.51305000  0.26071000  0.25908000  1
  C  C117  1  0.52069000  0.38145000  0.15442000  1
  C  C118  1  0.03197000  0.34277000  0.22770000  1
  C  C119  1  0.47100000  0.34874000  0.23634000  1
  C  C120  1  0.35936000  0.84629000  0.62537000  1
  C  C121  1  0.30709000  0.79154000  0.68380000  1
  C  C122  1  0.36580000  0.73924000  0.73874000  1
  C  C123  1  0.19224000  0.79250000  0.68523000  1
  C  C124  1  0.13925000  0.85072000  0.63079000  1
  C  C125  1  0.01921000  0.85633000  0.63200000  1
  C  C126  1  0.48695000  0.74092000  0.73929000  1
  C  C127  1  0.47931000  0.84558000  0.61855000  1
  C  C128  1  0.96802000  0.77230000  0.65723000  1
  C  C129  1  0.52900000  0.76366000  0.65126000  1
  C  C130  1  0.85932000  0.15373000  0.37463000  1
  C  C131  1  0.80706000  0.20848000  0.31619000  1
  C  C132  1  0.86576000  0.26076000  0.26125000  1
  C  C133  1  0.69221000  0.20752000  0.31477000  1
  C  C134  1  0.63921000  0.14932000  0.36923000  1
  C  C135  1  0.51918000  0.14370000  0.36800000  1
  C  C136  1  0.98691000  0.25908000  0.26069000  1
  C  C137  1  0.97926000  0.15443000  0.38144000  1
  C  C138  1  0.46798000  0.22772000  0.34276000  1
  C  C139  1  0.02895000  0.23635000  0.34872000  1
  C  C140  1  0.60934000  0.87464000  0.34626000  1
  C  C141  1  0.55707000  0.81621000  0.29151000  1
  C  C142  1  0.61578000  0.76127000  0.23923000  1
  C  C143  1  0.44223000  0.81479000  0.29247000  1
  C  C144  1  0.38922000  0.86924000  0.35069000  1
  C  C145  1  0.26919000  0.86802000  0.35630000  1
  C  C146  1  0.73693000  0.76071000  0.24091000  1
  C  C147  1  0.72928000  0.88145000  0.34557000  1
  C  C148  1  0.21800000  0.84278000  0.27228000  1
  C  C149  1  0.77898000  0.84874000  0.26365000  1
  C  C150  1  0.10934000  0.12538000  0.65370000  1
  C  C151  1  0.05708000  0.18381000  0.70846000  1
  C  C152  1  0.11578000  0.23876000  0.76075000  1
  C  C153  1  0.94223000  0.18525000  0.70750000  1
  C  C154  1  0.88923000  0.13080000  0.64929000  1
  C  C155  1  0.76920000  0.13202000  0.64367000  1
  C  C156  1  0.23693000  0.23931000  0.75907000  1
  C  C157  1  0.22929000  0.11855000  0.65442000  1
  C  C158  1  0.71800000  0.15725000  0.72770000  1
  C  C159  1  0.27897000  0.15127000  0.73634000  1
  N  N160  1  0.44544000  0.60116000  0.07611000  1
  N  N161  1  0.55676000  0.59828000  0.07951000  1
  N  N162  1  0.94546000  0.39887000  0.92385000  1
  N  N163  1  0.05678000  0.40175000  0.92046000  1
  N  N164  1  0.19548000  0.57611000  0.89883000  1
  N  N165  1  0.30680000  0.57950000  0.90170000  1
  N  N166  1  0.69543000  0.42386000  0.10112000  1
  N  N167  1  0.80675000  0.42046000  0.09824000  1
  N  N168  1  0.30457000  0.89888000  0.57614000  1
  N  N169  1  0.19325000  0.90176000  0.57954000  1
  N  N170  1  0.80452000  0.10117000  0.42389000  1
  N  N171  1  0.69320000  0.09830000  0.42050000  1
  N  N172  1  0.55455000  0.92389000  0.39884000  1
  N  N173  1  0.44324000  0.92049000  0.40172000  1
  N  N174  1  0.05454000  0.07615000  0.60113000  1
  N  N175  1  0.94322000  0.07954000  0.59825000  1
  Cl  Cl176  1  0.25129000  0.44136000  0.07933000  1
  Cl  Cl177  1  0.75124000  0.55864000  0.92070000  1
  Cl  Cl178  1  0.00129000  0.57931000  0.05862000  1
  Cl  Cl179  1  0.50123000  0.42066000  0.94134000  1
  Cl  Cl180  1  0.49877000  0.05866000  0.57934000  1
  Cl  Cl181  1  0.99870000  0.94138000  0.42069000  1
  Cl  Cl182  1  0.74871000  0.92067000  0.55864000  1
  Cl  Cl183  1  0.24876000  0.07930000  0.44136000  1
