# generated using pymatgen
data_H10C12N6O
_symmetry_space_group_name_H-M   'P 1'
_cell_length_a   10.00726667
_cell_length_b   21.63690000
_cell_length_c   21.63690000
_cell_angle_alpha   120.00000000
_cell_angle_beta   90.00000000
_cell_angle_gamma   90.00000000
_symmetry_Int_Tables_number   1
_chemical_formula_structural   H10C12N6O
_chemical_formula_sum   'H30 C36 N18 O3'
_cell_volume   4057.29121095
_cell_formula_units_Z   3
loop_
 _symmetry_equiv_pos_site_id
 _symmetry_equiv_pos_as_xyz
  1  'x, y, z'
loop_
 _atom_site_type_symbol
 _atom_site_label
 _atom_site_symmetry_multiplicity
 _atom_site_fract_x
 _atom_site_fract_y
 _atom_site_fract_z
 _atom_site_occupancy
  C  1  1  0.15377450  0.63545150  0.26742450  1
  C  3  1  0.14055500  0.74295400  0.37814200  1
  C  5  1  0.15875150  0.63243750  0.37480350  1
  C  13  1  0.85544300  0.36332700  0.74322800  1
  C  15  1  0.84638100  0.26107900  0.62780000  1
  C  17  1  0.85010700  0.37654100  0.64087400  1
  C  25  1  0.00257700  0.55576050  0.08279050  1
  C  26  1  0.88246300  0.55852100  0.04860000  1
  C  27  1  0.87509900  0.52039050  0.97249250  1
  C  28  1  0.98294100  0.47790850  0.93006450  1
  C  29  1  0.09809200  0.47320650  0.96505050  1
  C  30  1  0.10775700  0.51137850  0.03969850  1
  C  32  1  0.65302200  0.56344750  0.97761650  1
  C  33  1  0.65805700  0.60016350  0.05234450  1
  C  40  1  0.01810300  0.59945600  0.16208100  1
  C  43  1  0.98064100  0.44213350  0.85058150  1
  C  46  1  0.00405300  0.52614350  0.45168150  1
  C  47  1  0.88127400  0.49127550  0.44909350  1
  C  48  1  0.87079100  0.45210200  0.48588900  1
  C  49  1  0.97847200  0.44873100  0.52662600  1
  C  50  1  0.09659500  0.48629500  0.53111400  1
  C  51  1  0.10912650  0.52409150  0.49440150  1
  C  53  1  0.64596650  0.41981250  0.44497050  1
  C  54  1  0.65416000  0.45896100  0.40950200  1
  C  61  1  0.02214050  0.56304500  0.40943400  1
  C  64  1  0.97271950  0.40362750  0.56079550  1
  C  67  1  0.97389900  0.92069750  0.45004750  1
  C  68  1  0.86623800  0.95315900  0.49945300  1
  C  69  1  0.86611050  0.02894000  0.54513100  1
  C  70  1  0.96795000  0.07254100  0.54154000  1
  C  71  1  0.07042300  0.03941900  0.49073700  1
  C  72  1  0.07306450  0.96518600  0.44601600  1
  C  74  1  0.66193450  0.02272000  0.59904400  1
  C  75  1  0.65930550  0.94858000  0.55402100  1
  C  82  1  0.99400800  0.84213350  0.40230850  1
  C  85  1  0.96955900  0.15147800  0.59017000  1
  H  8  1  0.12948300  0.83521150  0.47062950  1
  H  10  1  0.22716300  0.55569450  0.39089250  1
  H  12  1  0.22239500  0.61919100  0.17469700  1
  H  20  1  0.83480750  0.17298050  0.53132650  1
  H  22  1  0.85952900  0.47266550  0.64799450  1
  H  24  1  0.86345850  0.35615150  0.83231450  1
  H  35  1  0.56968200  0.56470050  0.95102150  1
  H  36  1  0.19453500  0.50672050  0.06190550  1
  H  37  1  0.17835700  0.44337600  0.93628100  1
  H  39  1  0.77077500  0.62319000  0.13705400  1
  H  41  1  0.94282900  0.58067850  0.18559650  1
  H  42  1  0.99561200  0.65502150  0.17807850  1
  H  44  1  0.07175350  0.41095750  0.82724950  1
  H  45  1  0.97908400  0.48468000  0.83725600  1
  H  56  1  0.56043850  0.39361150  0.44404850  1
  H  57  1  0.19786300  0.54931350  0.49881350  1
  H  58  1  0.17678850  0.48485950  0.55972850  1
  H  60  1  0.77185500  0.51915900  0.38679400  1
  H  62  1  0.94786750  0.60588400  0.42893600  1
  H  63  1  0.99943900  0.52443700  0.35358900  1
  H  65  1  0.06458000  0.40876550  0.59058950  1
  H  66  1  0.96681200  0.34822050  0.51741150  1
  H  77  1  0.58787300  0.04875050  0.63543350  1
  H  78  1  0.15085200  0.94351800  0.41079300  1
  H  79  1  0.14569150  0.06904600  0.48640100  1
  H  81  1  0.75301650  0.86529200  0.47642800  1
  H  83  1  0.99371100  0.83116400  0.34717800  1
  H  84  1  0.91374000  0.81039650  0.40635950  1
  H  86  1  0.05688600  0.17565250  0.57998450  1
  H  87  1  0.97863350  0.16133600  0.64474800  1
  N  2  1  0.14345250  0.70776700  0.30565100  1
  N  4  1  0.14801400  0.70451550  0.41211750  1
  N  6  1  0.16001100  0.59810400  0.30231000  1
  N  7  1  0.12358800  0.81786550  0.41693450  1
  N  9  1  0.15552250  0.59489700  0.41229200  1
  N  11  1  0.15072800  0.59768850  0.19237050  1
  N  14  1  0.85128700  0.29126050  0.69995250  1
  N  16  1  0.84534300  0.30442350  0.59915450  1
  N  18  1  0.85421600  0.40517450  0.71284350  1
  N  19  1  0.84587950  0.18600900  0.58372900  1
  N  21  1  0.85567400  0.41981000  0.60897200  1
  N  23  1  0.86226800  0.39513300  0.81838400  1
  N  31  1  0.76108000  0.52524150  0.94094250  1
  N  34  1  0.77165400  0.59700250  0.08520750  1
  N  52  1  0.75397700  0.41798700  0.48151700  1
  N  55  1  0.77057700  0.49268450  0.41215450  1
  N  73  1  0.76458700  0.05967650  0.59271950  1
  N  76  1  0.76056200  0.91648400  0.50651300  1
  O  38  1  0.55080600  0.63807950  0.09063950  1
  O  59  1  0.54710700  0.46272900  0.37329800  1
  O  80  1  0.55652550  0.91011700  0.55811300  1
