# generated using pymatgen
data_Zn2H10C11NO7
_symmetry_space_group_name_H-M   'P 1'
_cell_length_a   10.37809000
_cell_length_b   12.49784000
_cell_length_c   20.27215000
_cell_angle_alpha   90.00404000
_cell_angle_beta   90.00045000
_cell_angle_gamma   89.88583000
_symmetry_Int_Tables_number   1
_chemical_formula_structural   Zn2H10C11NO7
_chemical_formula_sum   'Zn8 H40 C44 N4 O28'
_cell_volume   2629.36780399
_cell_formula_units_Z   4
loop_
 _symmetry_equiv_pos_site_id
 _symmetry_equiv_pos_as_xyz
  1  'x, y, z'
loop_
 _atom_site_type_symbol
 _atom_site_label
 _atom_site_symmetry_multiplicity
 _atom_site_fract_x
 _atom_site_fract_y
 _atom_site_fract_z
 _atom_site_occupancy
  Zn  Zn0  1  0.13352000  0.67897000  0.99159000  1
  Zn  Zn1  1  0.43642000  0.60727000  0.98855000  1
  Zn  Zn2  1  0.36614000  0.32109000  0.49156000  1
  Zn  Zn3  1  0.06356000  0.39288000  0.48852000  1
  Zn  Zn4  1  0.86662000  0.17621000  0.50845000  1
  Zn  Zn5  1  0.56545000  0.10698000  0.51176000  1
  Zn  Zn6  1  0.63362000  0.82378000  0.00841000  1
  Zn  Zn7  1  0.93446000  0.89521000  0.01153000  1
  H  H8  1  0.46694000  0.48573000  0.79243000  1
  H  H9  1  0.04163000  0.51971000  0.68041000  1
  H  H10  1  0.44505000  0.43760000  0.67412000  1
  H  H11  1  0.22368000  0.97187000  0.00718000  1
  H  H12  1  0.08706000  0.59122000  0.86358000  1
  H  H13  1  0.96181000  0.52618000  0.81053000  1
  H  H14  1  0.00144000  0.65028000  0.79115000  1
  H  H15  1  0.12155000  0.94225000  0.12120000  1
  H  H16  1  0.29230000  0.96045000  0.12183000  1
  H  H17  1  0.22476000  0.82933000  0.13128000  1
  H  H18  1  0.03299000  0.51422000  0.29243000  1
  H  H19  1  0.45849000  0.48026000  0.18046000  1
  H  H20  1  0.05500000  0.56245000  0.17417000  1
  H  H21  1  0.27631000  0.02814000  0.50742000  1
  H  H22  1  0.41321000  0.40871000  0.36348000  1
  H  H23  1  0.53819000  0.47380000  0.31054000  1
  H  H24  1  0.49858000  0.34962000  0.29115000  1
  H  H25  1  0.37891000  0.05750000  0.62137000  1
  H  H26  1  0.20821000  0.03932000  0.62211000  1
  H  H27  1  0.27568000  0.17040000  0.63166000  1
  H  H28  1  0.53389000  0.98491000  0.70724000  1
  H  H29  1  0.95864000  0.02049000  0.81971000  1
  H  H30  1  0.55585000  0.93743000  0.82581000  1
  H  H31  1  0.77553000  0.46928000  0.49313000  1
  H  H32  1  0.91416000  0.09021000  0.63673000  1
  H  H33  1  0.03903000  0.02650000  0.68937000  1
  H  H34  1  0.99806000  0.15064000  0.70866000  1
  H  H35  1  0.87826000  0.44171000  0.37942000  1
  H  H36  1  0.70744000  0.45994000  0.37853000  1
  H  H37  1  0.77566000  0.32910000  0.36803000  1
  H  H38  1  0.96600000  0.01498000  0.20728000  1
  H  H39  1  0.54132000  0.97989000  0.31980000  1
  H  H40  1  0.94417000  0.06256000  0.32585000  1
  H  H41  1  0.72481000  0.53089000  0.99324000  1
  H  H42  1  0.58624000  0.90979000  0.13661000  1
  H  H43  1  0.46102000  0.97345000  0.18942000  1
  H  H44  1  0.50183000  0.84933000  0.20873000  1
  H  H45  1  0.62195000  0.55832000  0.87948000  1
  H  H46  1  0.79274000  0.54009000  0.87857000  1
  H  H47  1  0.72449000  0.67094000  0.86815000  1
  C  C48  1  0.26708000  0.53044000  0.80550000  1
  C  C49  1  0.24186000  0.47410000  0.66868000  1
  C  C50  1  0.14726000  0.53923000  0.77065000  1
  C  C51  1  0.37452000  0.49267000  0.76764000  1
  C  C52  1  0.13425000  0.51248000  0.70519000  1
  C  C53  1  0.36237000  0.46587000  0.70213000  1
  C  C54  1  0.28101000  0.55821000  0.87368000  1
  C  C55  1  0.34279000  0.83366000  0.01241000  1
  C  C56  1  0.21826000  0.89260000  0.03103000  1
  C  C57  1  0.22901000  0.44183000  0.60017000  1
  C  C58  1  0.21412000  0.90698000  0.10642000  1
  C  C59  1  0.23294000  0.46950000  0.30548000  1
  C  C60  1  0.25823000  0.52599000  0.16868000  1
  C  C61  1  0.35277000  0.46071000  0.27064000  1
  C  C62  1  0.12546000  0.50728000  0.26765000  1
  C  C63  1  0.36583000  0.48757000  0.20519000  1
  C  C64  1  0.13770000  0.53418000  0.20215000  1
  C  C65  1  0.21904000  0.44179000  0.37367000  1
  C  C66  1  0.15714000  0.16645000  0.51280000  1
  C  C67  1  0.28177000  0.10742000  0.53131000  1
  C  C68  1  0.27109000  0.55825000  0.10015000  1
  C  C69  1  0.28631000  0.09285000  0.60669000  1
  C  C70  1  0.73358000  0.02956000  0.69446000  1
  C  C71  1  0.75854000  0.97483000  0.83128000  1
  C  C72  1  0.85324000  0.03901000  0.72932000  1
  C  C73  1  0.62609000  0.99208000  0.73222000  1
  C  C74  1  0.86621000  0.01287000  0.79485000  1
  C  C75  1  0.63824000  0.96589000  0.79780000  1
  C  C76  1  0.71969000  0.05637000  0.62618000  1
  C  C77  1  0.65716000  0.33161000  0.48760000  1
  C  C78  1  0.78124000  0.39036000  0.46890000  1
  C  C79  1  0.77089000  0.94385000  0.89993000  1
  C  C80  1  0.78571000  0.40611000  0.39365000  1
  C  C81  1  0.76637000  0.97027000  0.19457000  1
  C  C82  1  0.74142000  0.02571000  0.33131000  1
  C  C83  1  0.64671000  0.96094000  0.22945000  1
  C  C84  1  0.87388000  0.00771000  0.23231000  1
  C  C85  1  0.63376000  0.98745000  0.29494000  1
  C  C86  1  0.86180000  0.03405000  0.29786000  1
  C  C87  1  0.78025000  0.94362000  0.12628000  1
  C  C88  1  0.84298000  0.66874000  0.98758000  1
  C  C89  1  0.71894000  0.60977000  0.96899000  1
  C  C90  1  0.72889000  0.05799000  0.39976000  1
  C  C91  1  0.71448000  0.59392000  0.89374000  1
  N  N92  1  0.03650000  0.57942000  0.80909000  1
  N  N93  1  0.46354000  0.42051000  0.30909000  1
  N  N94  1  0.96380000  0.07946000  0.69089000  1
  N  N95  1  0.53623000  0.92047000  0.19098000  1
  O  O96  1  0.17581000  0.59265000  0.90634000  1
  O  O97  1  0.39068000  0.54892000  0.90305000  1
  O  O98  1  0.11510000  0.44950000  0.57324000  1
  O  O99  1  0.33069000  0.40685000  0.57020000  1
  O  O100  1  0.10931000  0.83641000  0.00670000  1
  O  O101  1  0.33027000  0.74596000  0.98020000  1
  O  O102  1  0.44878000  0.87312000  0.03094000  1
  O  O103  1  0.32417000  0.40732000  0.40634000  1
  O  O104  1  0.10932000  0.45105000  0.40302000  1
  O  O105  1  0.38505000  0.55082000  0.07326000  1
  O  O106  1  0.16934000  0.59311000  0.07017000  1
  O  O107  1  0.39032000  0.16378000  0.50676000  1
  O  O108  1  0.16959000  0.25388000  0.48030000  1
  O  O109  1  0.05130000  0.12702000  0.53154000  1
  O  O110  1  0.82465000  0.09019000  0.59346000  1
  O  O111  1  0.60997000  0.04664000  0.59690000  1
  O  O112  1  0.88465000  0.95180000  0.92687000  1
  O  O113  1  0.66902000  0.90978000  0.92999000  1
  O  O114  1  0.89015000  0.33379000  0.49320000  1
  O  O115  1  0.67053000  0.24418000  0.52003000  1
  O  O116  1  0.55095000  0.37105000  0.46937000  1
  O  O117  1  0.67527000  0.90984000  0.09349000  1
  O  O118  1  0.88991000  0.95354000  0.09698000  1
  O  O119  1  0.61455000  0.05310000  0.42630000  1
  O  O120  1  0.83133000  0.09023000  0.43007000  1
  O  O121  1  0.60993000  0.66624000  0.99323000  1
  O  O122  1  0.82994000  0.75641000  0.01978000  1
  O  O123  1  0.94907000  0.62896000  0.96935000  1
