# generated using pymatgen
data_H28C43(N2O)2
_symmetry_space_group_name_H-M   'P 1'
_cell_length_a   14.33900000
_cell_length_b   32.68800000
_cell_length_c   32.68800000
_cell_angle_alpha   60.00000000
_cell_angle_beta   89.87280000
_cell_angle_gamma   89.74559937
_symmetry_Int_Tables_number   1
_chemical_formula_structural   H28C43(N2O)2
_chemical_formula_sum   'H84 C129 N12 O6'
_cell_volume   13268.50260385
_cell_formula_units_Z   3
loop_
 _symmetry_equiv_pos_site_id
 _symmetry_equiv_pos_as_xyz
  1  'x, y, z'
loop_
 _atom_site_type_symbol
 _atom_site_label
 _atom_site_symmetry_multiplicity
 _atom_site_fract_x
 _atom_site_fract_y
 _atom_site_fract_z
 _atom_site_occupancy
  C  1  1  0.52600900  0.53225500  0.43696350  1
  C  2  1  0.33222200  0.53739800  0.43408850  1
  C  3  1  0.31084700  0.43006400  0.54529550  1
  C  4  1  0.11699800  0.43230150  0.54877800  1
  C  17  1  0.47871300  0.54021600  0.39602000  1
  C  18  1  0.38057400  0.54354050  0.39331550  1
  C  19  1  0.26072300  0.38794850  0.55778750  1
  C  20  1  0.16283500  0.38969700  0.56081950  1
  C  31  1  0.30863700  0.34585750  0.57047600  1
  C  35  1  0.33016300  0.55067550  0.35349850  1
  C  36  1  0.21767900  0.28090050  0.56680000  1
  C  39  1  0.49778500  0.58728300  0.27121350  1
  C  40  1  0.42428600  0.55433200  0.28604150  1
  C  53  1  0.22863200  0.23132900  0.59393450  1
  C  54  1  0.16576400  0.20060350  0.58966150  1
  C  55  1  0.09157000  0.21871450  0.55696800  1
  C  56  1  0.07952300  0.26838750  0.53015300  1
  C  59  1  0.14357600  0.29905350  0.53404500  1
  C  62  1  0.55124900  0.56423350  0.21397900  1
  C  63  1  0.56109100  0.59158750  0.23619750  1
  C  64  1  0.41345100  0.52724100  0.26345600  1
  C  81  1  0.04474000  0.05409950  0.53104750  1
  C  82  1  0.14359000  0.05479900  0.52945350  1
  C  83  1  0.14554200  0.98733800  0.51217200  1
  C  84  1  0.04668900  0.98722400  0.51090100  1
  C  85  1  0.00300000  0.95318800  0.50223850  1
  C  86  1  0.05357200  0.91888000  0.49639700  1
  C  87  1  0.15167600  0.91982800  0.49878600  1
  C  88  1  0.19683000  0.95390000  0.50577000  1
  C  89  1  0.19294600  0.08851450  0.53590400  1
  C  90  1  0.14587400  0.12188000  0.54355150  1
  C  91  1  0.04771400  0.12192650  0.54643100  1
  C  92  1  0.99911900  0.08754550  0.54019150  1
  C  93  1  0.93333800  0.05180200  0.47626350  1
  C  94  1  0.83444500  0.05069250  0.47653000  1
  C  95  1  0.83358800  0.99052500  0.56402350  1
  C  96  1  0.93250900  0.98936500  0.56500100  1
  C  97  1  0.78253800  0.96231300  0.60591350  1
  C  98  1  0.82793800  0.93195700  0.64862950  1
  C  99  1  0.92588800  0.92751100  0.65061350  1
  C  100  1  0.97652200  0.95740350  0.60866900  1
  C  101  1  0.97816000  0.08370100  0.43289550  1
  C  102  1  0.92843600  0.11353800  0.39054750  1
  C  103  1  0.83054500  0.10922350  0.39186250  1
  C  104  1  0.78429600  0.07894300  0.43427750  1
  C  117  1  0.98932400  0.02060300  0.52082400  1
  C  118  1  0.78032500  0.02062350  0.52009400  1
  C  121  1  0.19829100  0.02137250  0.52059900  1
  C  124  1  0.97309100  0.89810800  0.69282350  1
  C  125  1  0.99757700  0.15500550  0.55326950  1
  C  126  1  0.97679300  0.14269000  0.34867650  1
  C  130  1  0.00559000  0.88461800  0.49092100  1
  C  132  1  0.37805400  0.52798150  0.47659750  1
  C  133  1  0.47687900  0.52594150  0.47727050  1
  C  134  1  0.47924200  0.50860250  0.56201750  1
  C  135  1  0.38037800  0.50778850  0.56362050  1
  C  136  1  0.33690300  0.49937400  0.60639650  1
  C  137  1  0.38773500  0.49340600  0.64638700  1
  C  138  1  0.48584600  0.49527550  0.64286250  1
  C  139  1  0.53076600  0.50200250  0.60172850  1
  C  140  1  0.26643800  0.47362150  0.53389250  1
  C  141  1  0.16754200  0.47432250  0.53480100  1
  C  142  1  0.16750700  0.56181550  0.50751600  1
  C  143  1  0.26643400  0.56236150  0.50762700  1
  C  144  1  0.11686100  0.60393700  0.49385150  1
  C  145  1  0.16267000  0.64645650  0.48144050  1
  C  146  1  0.26063600  0.64801100  0.48385600  1
  C  147  1  0.31086000  0.60583400  0.49588650  1
  C  154  1  0.32282800  0.51795200  0.52044800  1
  C  155  1  0.11383500  0.51812100  0.52135750  1
  C  158  1  0.53178300  0.51677900  0.51944800  1
  C  161  1  0.30830000  0.69001100  0.47098950  1
  C  163  1  0.34007600  0.48825100  0.68620350  1
  C  165  1  0.71140300  0.47379000  0.05695150  1
  C  166  1  0.81023600  0.47438850  0.05799800  1
  C  167  1  0.81212200  0.55912950  0.99056600  1
  C  168  1  0.71325100  0.56080250  0.99008450  1
  C  169  1  0.66953700  0.60361500  0.95586750  1
  C  170  1  0.72013400  0.64359400  0.92172350  1
  C  171  1  0.81825900  0.63997800  0.92304750  1
  C  172  1  0.86341500  0.59879850  0.95729100  1
  C  173  1  0.85959400  0.43405050  0.09183900  1
  C  174  1  0.81253800  0.39313350  0.12495850  1
  C  175  1  0.71439900  0.39051400  0.12467450  1
  C  176  1  0.66580700  0.43131750  0.09018800  1
  C  177  1  0.59966200  0.53119700  0.05434150  1
  C  178  1  0.50076400  0.53223900  0.05303150  1
  C  179  1  0.50051300  0.50491050  0.99286100  1
  C  180  1  0.59943900  0.50489100  0.99190850  1
  C  181  1  0.44976900  0.49130150  0.96456500  1
  C  182  1  0.49546900  0.47880100  0.93434200  1
  C  183  1  0.59342700  0.48101200  0.93014450  1
  C  184  1  0.64376600  0.49304500  0.96008150  1
  C  185  1  0.64421300  0.54257450  0.08632900  1
  C  186  1  0.59421800  0.55518750  0.11606400  1
  C  187  1  0.49631400  0.55836900  0.11157050  1
  C  188  1  0.45033500  0.54632600  0.08119800  1
  C  201  1  0.65594300  0.51767950  0.02329200  1
  C  202  1  0.44694500  0.51884950  0.02285250  1
  C  205  1  0.86490200  0.51652050  0.02479600  1
  C  208  1  0.64096200  0.46807750  0.90087200  1
  C  209  1  0.66422200  0.35069100  0.15744550  1
  C  210  1  0.64231800  0.56786200  0.14526250  1
  C  214  1  0.67225500  0.68343100  0.88718500  1
  C  216  1  0.88573100  0.21136400  0.28350500  1
  C  217  1  0.89579400  0.23337100  0.23393850  1
  C  218  1  0.83238300  0.26833750  0.20318700  1
  C  219  1  0.75870700  0.28342700  0.22123900  1
  C  220  1  0.74758400  0.26100300  0.27091900  1
  C  223  1  0.81214300  0.22645650  0.30161200  1
  C  230  1  0.47796100  0.53115650  0.22888900  1
  C  233  1  0.88504800  0.82738400  0.75835850  1
  C  234  1  0.90309100  0.80263600  0.80745300  1
  C  235  1  0.84384500  0.76612900  0.83925400  1
  C  236  1  0.76551400  0.75279300  0.82262950  1
  C  237  1  0.74639900  0.77792150  0.77350600  1
  C  240  1  0.80704400  0.81384700  0.74169900  1
  C  246  1  0.22017500  0.75572600  0.47606750  1
  C  247  1  0.23698600  0.80490200  0.45120550  1
  C  248  1  0.17710300  0.83666200  0.45593550  1
  C  249  1  0.09943600  0.81992250  0.48648250  1
  C  250  1  0.08163200  0.77070350  0.51105150  1
  C  253  1  0.14293400  0.73894950  0.50690900  1
  C  259  1  0.55318100  0.47328000  0.83007650  1
  C  260  1  0.57136100  0.44874150  0.80549950  1
  C  261  1  0.51211800  0.45348100  0.76895450  1
  C  262  1  0.43366700  0.48367750  0.75538250  1
  C  263  1  0.41441900  0.50785100  0.78036050  1
  C  266  1  0.47507100  0.50371450  0.81631300  1
  H  5  1  0.04572600  0.43234650  0.55063700  1
  H  6  1  0.38217900  0.42921150  0.54435200  1
  H  7  1  0.26084100  0.53859000  0.43348650  1
  H  8  1  0.59728500  0.53015050  0.43747150  1
  H  21  1  0.12359900  0.35990600  0.57242050  1
  H  22  1  0.51736800  0.54304100  0.36853850  1
  H  23  1  0.37438600  0.34407800  0.58074050  1
  H  33  1  0.26124200  0.55243450  0.35534050  1
  H  37  1  0.13537800  0.33473850  0.51302750  1
  H  41  1  0.50422300  0.60923550  0.28491400  1
  H  51  1  0.61353400  0.61590400  0.22613550  1
  H  57  1  0.17313500  0.16494100  0.61141450  1
  H  58  1  0.28168000  0.21708350  0.61801800  1
  H  61  1  0.95510600  0.29031050  0.51730400  1
  H  66  1  0.28959200  0.51389250  0.25460700  1
  H  105  1  0.79159100  0.12755500  0.36189250  1
  H  106  1  0.71303300  0.07737000  0.43400350  1
  H  107  1  0.71121500  0.96394500  0.60569500  1
  H  108  1  0.78832700  0.91368200  0.67834050  1
  H  109  1  0.04787800  0.95591000  0.60971150  1
  H  110  1  0.04949900  0.08513200  0.43235950  1
  H  111  1  0.93163500  0.95268900  0.50160150  1
  H  112  1  0.19175200  0.89541100  0.49615350  1
  H  113  1  0.26814600  0.95335900  0.50734950  1
  H  114  1  0.92772900  0.08743250  0.54106900  1
  H  115  1  0.26424500  0.08963500  0.53411300  1
  H  116  1  0.18468800  0.14632900  0.54646950  1
  H  119  1  0.73502200  0.04388000  0.52647850  1
  H  120  1  0.73613800  0.99738800  0.51340100  1
  H  122  1  0.24360400  0.00116650  0.55119250  1
  H  123  1  0.24246800  0.04206050  0.48969300  1
  H  127  1  0.04262900  0.13392050  0.34725800  1
  H  128  1  0.03836100  0.90680800  0.69509850  1
  H  129  1  0.92863000  0.15182850  0.55483400  1
  H  131  1  0.93641300  0.88630400  0.49068150  1
  H  148  1  0.04554200  0.60403350  0.49247600  1
  H  149  1  0.12334100  0.67634300  0.47001050  1
  H  150  1  0.38222500  0.60656200  0.49627600  1
  H  151  1  0.26554200  0.49910350  0.60767800  1
  H  152  1  0.52610100  0.49250550  0.66980450  1
  H  153  1  0.60209700  0.50321650  0.60054600  1
  H  156  1  0.06861500  0.52472100  0.49173900  1
  H  157  1  0.06956300  0.51160850  0.55131650  1
  H  159  1  0.57750700  0.54714000  0.50898750  1
  H  160  1  0.57554000  0.48565350  0.52956250  1
  H  162  1  0.37362100  0.69191700  0.46004050  1
  H  164  1  0.27088000  0.48834200  0.68497900  1
  H  189  1  0.45716100  0.57006850  0.12984300  1
  H  190  1  0.37906000  0.54830700  0.07949150  1
  H  191  1  0.37845300  0.49002750  0.96605100  1
  H  192  1  0.45608800  0.46738850  0.91602850  1
  H  193  1  0.71512600  0.49333300  0.95875450  1
  H  194  1  0.71555100  0.54153700  0.08790050  1
  H  195  1  0.59817000  0.60496200  0.95509450  1
  H  196  1  0.85835300  0.66688600  0.89873900  1
  H  197  1  0.93474700  0.59756600  0.95703450  1
  H  198  1  0.59442700  0.43077650  0.08983200  1
  H  199  1  0.93087600  0.43449050  0.09318500  1
  H  200  1  0.85135800  0.36561350  0.14947200  1
  H  203  1  0.40181800  0.48929650  0.04601900  1
  H  204  1  0.40257500  0.54886350  0.99952700  1
  H  206  1  0.91058100  0.50601750  0.00475200  1
  H  207  1  0.90871100  0.52660500  0.04566050  1
  H  211  1  0.70800700  0.57805300  0.13652450  1
  H  212  1  0.70629100  0.45698350  0.90972500  1
  H  213  1  0.59531200  0.35250150  0.15391550  1
  H  215  1  0.60306500  0.68218100  0.88840400  1
  H  221  1  0.83901900  0.28189250  0.16755050  1
  H  222  1  0.94843500  0.22316400  0.21972500  1
  H  224  1  0.80461800  0.21210850  0.33728350  1
  H  226  1  0.62362800  0.25228100  0.29324700  1
  H  231  1  0.47063100  0.50996550  0.21439700  1
  H  238  1  0.85677000  0.75035000  0.87469300  1
  H  239  1  0.95907100  0.81167000  0.82063700  1
  H  241  1  0.79366900  0.83011600  0.70630150  1
  H  243  1  0.61883600  0.78614700  0.75701900  1
  H  251  1  0.18895300  0.87214500  0.43580850  1
  H  252  1  0.29239900  0.81817300  0.42852250  1
  H  254  1  0.13049600  0.70350400  0.52642250  1
  H  256  1  0.95460800  0.75343400  0.52030550  1
  H  264  1  0.52501400  0.43358750  0.75339450  1
  H  265  1  0.62734300  0.42629650  0.81474450  1
  H  267  1  0.46157600  0.52297400  0.83246100  1
  H  269  1  0.28683300  0.51646450  0.78843600  1
  N  38  1  0.28075900  0.30750650  0.57238600  1
  N  42  1  0.35686900  0.55345650  0.31452150  1
  N  227  1  0.94929400  0.17917400  0.31011600  1
  N  228  1  0.69107200  0.31177450  0.19368600  1
  N  229  1  0.02466800  0.19112350  0.55596200  1
  N  232  1  0.61473500  0.56986450  0.18177800  1
  N  244  1  0.94461500  0.86114250  0.73057900  1
  N  245  1  0.70327200  0.72160200  0.85160400  1
  N  257  1  0.28033400  0.72801500  0.47001700  1
  N  258  1  0.03613000  0.84880800  0.48843350  1
  N  270  1  0.61273900  0.46724400  0.86389300  1
  N  271  1  0.37126100  0.48579850  0.72429250  1
  O  60  1  0.00730600  0.28756450  0.49924050  1
  O  65  1  0.34191100  0.49608100  0.27543800  1
  O  225  1  0.67574300  0.27314300  0.29005750  1
  O  242  1  0.67074300  0.76701700  0.75579050  1
  O  255  1  0.00654600  0.75287300  0.54018650  1
  O  268  1  0.33858300  0.53665650  0.76928150  1
