# generated using pymatgen
data_Zn2H16C19N2O9
_symmetry_space_group_name_H-M   'P 1'
_cell_length_a   7.78538000
_cell_length_b   8.57393000
_cell_length_c   10.66971000
_cell_angle_alpha   88.18935000
_cell_angle_beta   84.18501000
_cell_angle_gamma   86.17616000
_symmetry_Int_Tables_number   1
_chemical_formula_structural   Zn2H16C19N2O9
_chemical_formula_sum   'Zn2 H16 C19 N2 O9'
_cell_volume   706.75338230
_cell_formula_units_Z   1
loop_
 _symmetry_equiv_pos_site_id
 _symmetry_equiv_pos_as_xyz
  1  'x, y, z'
loop_
 _atom_site_type_symbol
 _atom_site_label
 _atom_site_symmetry_multiplicity
 _atom_site_fract_x
 _atom_site_fract_y
 _atom_site_fract_z
 _atom_site_occupancy
  Zn  Zn0  1  0.69307000  0.51799000  0.48556000  1
  Zn  Zn1  1  0.30693000  0.48201000  0.51444000  1
  H  H2  1  0.26660000  0.37569000  0.13240000  1
  H  H3  1  0.04688000  0.19971000  0.18669000  1
  H  H4  1  0.00011000  0.25470000  0.03056000  1
  H  H5  1  0.71718000  0.16715000  0.24199000  1
  H  H6  1  0.70201000  0.17837000  0.07436000  1
  H  H7  1  0.92972000  0.95573000  0.04719000  1
  H  H8  1  0.73581000  0.90383000  0.14286000  1
  H  H9  1  0.92766000  0.93835000  0.21687000  1
  H  H10  1  0.01414000  0.61834000  0.40441000  1
  H  H11  1  0.08488000  0.61105000  0.05416000  1
  H  H12  1  0.01175000  0.75773000  0.86230000  1
  H  H13  1  0.73684000  0.72530000  0.77781000  1
  H  H14  1  0.25811000  0.39514000  0.90652000  1
  H  H15  1  0.29790000  0.00955000  0.51491000  1
  H  H16  1  0.70221000  0.99048000  0.48442000  1
  H  H17  1  0.98581000  0.38162000  0.59551000  1
  C  C18  1  0.45414000  0.79480000  0.50295000  1
  C  C19  1  0.54587000  0.20519000  0.49709000  1
  C  C20  1  0.49820000  0.50917000  0.74000000  1
  C  C21  1  0.84152000  0.50337000  0.08443000  1
  C  C22  1  0.96069000  0.59980000  0.01991000  1
  C  C23  1  0.91988000  0.68207000  0.91147000  1
  C  C24  1  0.76355000  0.66141000  0.86348000  1
  C  C25  1  0.64314000  0.56230000  0.92726000  1
  C  C26  1  0.94373000  0.25263000  0.13105000  1
  C  C27  1  0.79007000  0.14823000  0.14829000  1
  C  C28  1  0.84995000  0.97571000  0.13814000  1
  C  C29  1  0.66982000  0.50671000  0.04832000  1
  C  C30  1  0.52131000  0.46177000  0.12666000  1
  C  C31  1  0.37550000  0.41957000  0.07434000  1
  C  C32  1  0.36808000  0.43707000  0.94694000  1
  C  C33  1  0.49868000  0.51213000  0.87366000  1
  C  C34  1  0.43005000  0.95832000  0.50487000  1
  C  C35  1  0.57004000  0.04168000  0.49471000  1
  C  C36  1  0.50553000  0.48467000  0.26036000  1
  N  N37  1  0.04967000  0.45795000  0.53375000  1
  N  N38  1  0.95033000  0.54205000  0.46625000  1
  O  O39  1  0.61075000  0.73857000  0.49172000  1
  O  O40  1  0.32161000  0.71163000  0.51335000  1
  O  O41  1  0.64460000  0.51347000  0.30595000  1
  O  O42  1  0.35546000  0.48653000  0.32758000  1
  O  O43  1  0.67839000  0.28837000  0.48665000  1
  O  O44  1  0.38925000  0.26143000  0.50828000  1
  O  O45  1  0.64454000  0.51347000  0.67242000  1
  O  O46  1  0.35540000  0.48653000  0.69405000  1
  O  O47  1  0.89748000  0.40357000  0.17871000  1
