# generated using pymatgen
data_H5C10N2O
_symmetry_space_group_name_H-M   'P 1'
_cell_length_a   26.63610000
_cell_length_b   26.63610000
_cell_length_c   26.63610000
_cell_angle_alpha   90.00000000
_cell_angle_beta   90.00000000
_cell_angle_gamma   90.00000000
_symmetry_Int_Tables_number   1
_chemical_formula_structural   H5C10N2O
_chemical_formula_sum   'H160 C320 N64 O32'
_cell_volume   18897.82879120
_cell_formula_units_Z   32
loop_
 _symmetry_equiv_pos_site_id
 _symmetry_equiv_pos_as_xyz
  1  'x, y, z'
loop_
 _atom_site_type_symbol
 _atom_site_label
 _atom_site_symmetry_multiplicity
 _atom_site_fract_x
 _atom_site_fract_y
 _atom_site_fract_z
 _atom_site_occupancy
  H  7  1  0.08906100  0.03271300  0.97922000  1
  H  16  1  0.92997500  0.98499800  0.04204600  1
  H  17  1  0.01007900  0.16340000  0.88926700  1
  H  18  1  0.00808700  0.85208500  0.12950000  1
  H  19  1  0.93038400  0.03183000  0.97764400  1
  H  20  1  0.08864900  0.98308700  0.04177200  1
  H  27  1  0.42914300  0.98529500  0.47859500  1
  H  36  1  0.58809700  0.03386900  0.54095000  1
  H  37  1  0.50789000  0.90061300  0.33524900  1
  H  38  1  0.50973300  0.16593700  0.62921400  1
  H  39  1  0.58772100  0.98583900  0.47747300  1
  H  40  1  0.42942100  0.03516900  0.54093200  1
  H  47  1  0.23521500  0.83759700  0.22861100  1
  H  56  1  0.28407400  0.67912000  0.29195100  1
  H  57  1  0.14962100  0.75782200  0.08647600  1
  H  58  1  0.41631500  0.75890300  0.37801000  1
  H  59  1  0.23416800  0.67902200  0.22972300  1
  H  60  1  0.28309100  0.83778800  0.29236000  1
  H  67  1  0.28262700  0.18016200  0.72770100  1
  H  76  1  0.23336900  0.33835000  0.79152400  1
  H  77  1  0.36841700  0.26045300  0.58604000  1
  H  78  1  0.10228900  0.25786300  0.87901000  1
  H  79  1  0.28375900  0.33873600  0.72960000  1
  H  80  1  0.23499000  0.17968400  0.79151600  1
  H  87  1  0.78538600  0.17888600  0.79008200  1
  H  96  1  0.73737200  0.33791100  0.72749400  1
  H  97  1  0.91624900  0.25783300  0.87906700  1
  H  98  1  0.60452900  0.25966000  0.63938400  1
  H  99  1  0.78306900  0.33752100  0.79304100  1
  H  100  1  0.73415800  0.17926900  0.72912000  1
  H  107  1  0.73334000  0.83868900  0.29142700  1
  H  116  1  0.78158300  0.68008100  0.22777600  1
  H  117  1  0.60114700  0.75894000  0.37765300  1
  H  118  1  0.91391400  0.75919200  0.13990300  1
  H  119  1  0.73500700  0.68001700  0.29256400  1
  H  120  1  0.78340700  0.83874900  0.22941100  1
  H  127  1  0.58856600  0.53360700  0.47866300  1
  H  136  1  0.43051700  0.48450400  0.54274500  1
  H  137  1  0.50846400  0.61765800  0.33569300  1
  H  138  1  0.51051000  0.35213100  0.62922900  1
  H  139  1  0.43000700  0.53152000  0.47819000  1
  H  140  1  0.58915200  0.48293500  0.54004900  1
  H  147  1  0.92955800  0.48334800  0.97931800  1
  H  156  1  0.08765200  0.53285600  0.04298300  1
  H  157  1  0.00954400  0.39940600  0.83618100  1
  H  158  1  0.00787300  0.66589000  0.12894900  1
  H  159  1  0.08811100  0.48621600  0.97810500  1
  H  160  1  0.92902200  0.53512700  0.03983200  1
  H  167  1  0.92986600  0.93435600  0.19410000  1
  H  168  1  0.83315900  0.83856900  0.07661600  1
  H  175  1  0.58823600  0.08382800  0.69330000  1
  H  176  1  0.68471800  0.18009400  0.57603400  1
  H  183  1  0.33775800  0.68188700  0.44472400  1
  H  184  1  0.42537400  0.57871100  0.32637500  1
  H  191  1  0.18009400  0.33504900  0.94465800  1
  H  192  1  0.09264100  0.43869400  0.82664200  1
  H  199  1  0.59135900  0.93870400  0.32555900  1
  H  200  1  0.67972100  0.83625600  0.44399900  1
  H  207  1  0.93136800  0.08246800  0.82535400  1
  H  208  1  0.83488600  0.17844500  0.94286700  1
  H  215  1  0.18837800  0.67431800  0.07748900  1
  H  216  1  0.08372000  0.58777400  0.19529000  1
  H  223  1  0.32951900  0.34397300  0.57741200  1
  H  224  1  0.43446300  0.42996900  0.69538700  1
  H  231  1  0.08954200  0.08191100  0.82631100  1
  H  232  1  0.18403200  0.17994200  0.94373800  1
  H  239  1  0.42434900  0.93905300  0.32627600  1
  H  240  1  0.33760400  0.83525000  0.44472000  1
  H  247  1  0.68647800  0.33794500  0.57550500  1
  H  248  1  0.58957600  0.43342000  0.69306000  1
  H  255  1  0.83250600  0.68106900  0.07566400  1
  H  256  1  0.92847700  0.58409500  0.19275500  1
  H  263  1  0.43195500  0.08756100  0.69408800  1
  H  264  1  0.33031200  0.17720700  0.57589500  1
  H  271  1  0.08579000  0.93026400  0.19481800  1
  H  272  1  0.18782900  0.84105400  0.07667500  1
  H  279  1  0.83750700  0.33444500  0.94510100  1
  H  280  1  0.92598400  0.43698600  0.82681800  1
  H  287  1  0.68070400  0.68231500  0.44440100  1
  H  288  1  0.59188500  0.58006600  0.32614000  1
  H  295  1  0.08906100  0.03271300  0.27956400  1
  H  304  1  0.92997500  0.98499800  0.34239000  1
  H  305  1  0.01007900  0.16340000  0.18961100  1
  H  306  1  0.00808700  0.85208500  0.42984400  1
  H  307  1  0.93038400  0.03183000  0.27798800  1
  H  308  1  0.08864900  0.98308700  0.34211600  1
  H  315  1  0.42914300  0.98529500  0.77893900  1
  H  324  1  0.58809700  0.03386900  0.84129400  1
  H  325  1  0.50789000  0.90061300  0.63559300  1
  H  326  1  0.50973300  0.16593700  0.92955800  1
  H  327  1  0.58772100  0.98583900  0.77781700  1
  H  328  1  0.42942100  0.03516900  0.84127600  1
  H  335  1  0.23521500  0.83759700  0.52895500  1
  H  344  1  0.28407400  0.67912000  0.59229500  1
  H  345  1  0.14962100  0.75782200  0.38682000  1
  H  346  1  0.41631500  0.75890300  0.67835400  1
  H  347  1  0.23416800  0.67902200  0.53006700  1
  H  348  1  0.28309100  0.83778800  0.59270400  1
  H  355  1  0.28262700  0.18016200  0.02804530  1
  H  364  1  0.23336900  0.33835000  0.09186830  1
  H  365  1  0.36841700  0.26045300  0.88638400  1
  H  366  1  0.10228900  0.25786300  0.17935400  1
  H  367  1  0.28375900  0.33873600  0.02994430  1
  H  368  1  0.23499000  0.17968400  0.09186030  1
  H  375  1  0.78538600  0.17888600  0.09042630  1
  H  384  1  0.73737200  0.33791100  0.02783830  1
  H  385  1  0.91624900  0.25783300  0.17941100  1
  H  386  1  0.60452900  0.25966000  0.93972800  1
  H  387  1  0.78306900  0.33752100  0.09338530  1
  H  388  1  0.73415800  0.17926900  0.02946430  1
  H  395  1  0.73334000  0.83868900  0.59177100  1
  H  404  1  0.78158300  0.68008100  0.52812000  1
  H  405  1  0.60114700  0.75894000  0.67799700  1
  H  406  1  0.91391400  0.75919200  0.44024700  1
  H  407  1  0.73500700  0.68001700  0.59290800  1
  H  408  1  0.78340700  0.83874900  0.52975500  1
  H  415  1  0.58856600  0.53360700  0.77900700  1
  H  424  1  0.43051700  0.48450400  0.84308900  1
  H  425  1  0.50846400  0.61765800  0.63603700  1
  H  426  1  0.51051000  0.35213100  0.92957300  1
  H  427  1  0.43000700  0.53152000  0.77853400  1
  H  428  1  0.58915200  0.48293500  0.84039300  1
  H  435  1  0.92955800  0.48334800  0.27966200  1
  H  444  1  0.08765200  0.53285600  0.34332700  1
  H  445  1  0.00954400  0.39940600  0.13652500  1
  H  446  1  0.00787300  0.66589000  0.42929300  1
  H  447  1  0.08811100  0.48621600  0.27844900  1
  H  448  1  0.92902200  0.53512700  0.34017600  1
  H  455  1  0.92986600  0.93435600  0.49444400  1
  H  456  1  0.83315900  0.83856900  0.37696000  1
  H  463  1  0.58823600  0.08382800  0.99364400  1
  H  464  1  0.68471800  0.18009400  0.87637800  1
  H  471  1  0.33775800  0.68188700  0.74506800  1
  H  472  1  0.42537400  0.57871100  0.62671900  1
  H  479  1  0.18009400  0.33504900  0.24500200  1
  H  480  1  0.09264100  0.43869400  0.12698600  1
  H  487  1  0.59135900  0.93870400  0.62590300  1
  H  488  1  0.67972100  0.83625600  0.74434300  1
  H  495  1  0.93136800  0.08246800  0.12569800  1
  H  496  1  0.83488600  0.17844500  0.24321100  1
  H  503  1  0.18837800  0.67431800  0.37783300  1
  H  504  1  0.08372000  0.58777400  0.49563400  1
  H  511  1  0.32951900  0.34397300  0.87775600  1
  H  512  1  0.43446300  0.42996900  0.99573100  1
  H  519  1  0.08954200  0.08191100  0.12665500  1
  H  520  1  0.18403200  0.17994200  0.24408200  1
  H  527  1  0.42434900  0.93905300  0.62662000  1
  H  528  1  0.33760400  0.83525000  0.74506400  1
  H  535  1  0.68647800  0.33794500  0.87584900  1
  H  536  1  0.58957600  0.43342000  0.99340400  1
  H  543  1  0.83250600  0.68106900  0.37600800  1
  H  544  1  0.92847700  0.58409500  0.49309900  1
  H  551  1  0.43195500  0.08756100  0.99443200  1
  H  552  1  0.33031200  0.17720700  0.87623900  1
  H  559  1  0.08579000  0.93026400  0.49516200  1
  H  560  1  0.18782900  0.84105400  0.37701900  1
  H  567  1  0.83750700  0.33444500  0.24544500  1
  H  568  1  0.92598400  0.43698600  0.12716200  1
  H  575  1  0.68070400  0.68231500  0.74474500  1
  H  576  1  0.59188500  0.58006600  0.62648400  1
  C  1  1  0.00967700  0.02497700  0.98803200  1
  C  2  1  0.05499600  0.04297800  0.96534100  1
  C  3  1  0.05626500  0.07570600  0.92338300  1
  C  4  1  0.01008300  0.09364500  0.90419100  1
  C  5  1  0.96373400  0.07551100  0.92275600  1
  C  6  1  0.96460900  0.04259000  0.96455200  1
  C  9  1  0.00939900  0.99118900  0.03220600  1
  C  10  1  0.05441700  0.97285300  0.05524800  1
  C  11  1  0.05517400  0.93984500  0.09702600  1
  C  12  1  0.00866900  0.92203900  0.11558500  1
  C  13  1  0.96260000  0.94073100  0.09688500  1
  C  14  1  0.96401900  0.97387100  0.05529200  1
  C  21  1  0.50845700  0.99359600  0.48704600  1
  C  22  1  0.46319900  0.97556000  0.46431000  1
  C  23  1  0.46194500  0.94307800  0.42214900  1
  C  24  1  0.50814100  0.92609700  0.40202600  1
  C  25  1  0.55446200  0.94322400  0.42168400  1
  C  26  1  0.55352300  0.97579300  0.46375800  1
  C  29  1  0.50867800  0.02717300  0.53138800  1
  C  30  1  0.46363000  0.04535300  0.55450000  1
  C  31  1  0.46281200  0.07823300  0.59637900  1
  C  32  1  0.50928300  0.09602900  0.61503000  1
  C  33  1  0.55538600  0.07756100  0.59619100  1
  C  34  1  0.55402700  0.04463900  0.55442500  1
  C  41  1  0.24268200  0.75832100  0.23822200  1
  C  42  1  0.22499100  0.80343600  0.21493500  1
  C  43  1  0.19238700  0.80446900  0.17287300  1
  C  44  1  0.17506200  0.75817800  0.15327300  1
  C  45  1  0.19193600  0.71194400  0.17338800  1
  C  46  1  0.22447400  0.71311500  0.21550500  1
  C  49  1  0.27644200  0.75843000  0.28244500  1
  C  50  1  0.29409700  0.80368800  0.30555700  1
  C  51  1  0.32742100  0.80491200  0.34704900  1
  C  52  1  0.34612000  0.75865900  0.36533900  1
  C  53  1  0.32784200  0.71227800  0.34694200  1
  C  54  1  0.29457600  0.71328400  0.30539300  1
  C  61  1  0.27516100  0.25940600  0.73766500  1
  C  62  1  0.29286400  0.21438500  0.71419600  1
  C  63  1  0.32557100  0.21351800  0.67221600  1
  C  64  1  0.34284800  0.25989100  0.65278700  1
  C  65  1  0.32593300  0.30603700  0.67306400  1
  C  66  1  0.29340400  0.30470900  0.71518400  1
  C  69  1  0.24145500  0.25910900  0.78192000  1
  C  70  1  0.22401900  0.21372200  0.80490400  1
  C  71  1  0.19091200  0.21228200  0.84653200  1
  C  72  1  0.17228400  0.25836000  0.86528500  1
  C  73  1  0.19015300  0.30488000  0.84680600  1
  C  74  1  0.22315600  0.30411800  0.80502100  1
  C  81  1  0.77699100  0.25829200  0.78194300  1
  C  82  1  0.79538700  0.21292800  0.80419800  1
  C  83  1  0.82827900  0.21153300  0.84598000  1
  C  84  1  0.84628400  0.25766400  0.86520200  1
  C  85  1  0.82773000  0.30409900  0.84720400  1
  C  86  1  0.79437700  0.30331300  0.80570000  1
  C  89  1  0.74312000  0.25854800  0.73784100  1
  C  90  1  0.72448000  0.21347600  0.71517600  1
  C  91  1  0.69181300  0.21259000  0.67318400  1
  C  92  1  0.67432200  0.25899300  0.65413100  1
  C  93  1  0.69296600  0.30512800  0.67274900  1
  C  94  1  0.72604900  0.30385800  0.71443300  1
  C  101  1  0.74123500  0.75935700  0.28222800  1
  C  102  1  0.72291400  0.80453600  0.30495500  1
  C  103  1  0.68957600  0.80559100  0.34643200  1
  C  104  1  0.67133000  0.75924800  0.36493300  1
  C  105  1  0.69015000  0.71299900  0.34678100  1
  C  106  1  0.72369900  0.71412900  0.30547500  1
  C  109  1  0.77521100  0.75940200  0.23819800  1
  C  110  1  0.79350200  0.80462600  0.21555600  1
  C  111  1  0.82632600  0.80576000  0.17368300  1
  C  112  1  0.84409900  0.75949600  0.15454800  1
  C  113  1  0.82566900  0.71322400  0.17302900  1
  C  114  1  0.79262800  0.71423800  0.21474500  1
  C  121  1  0.50936200  0.52454800  0.48744800  1
  C  122  1  0.55435300  0.54295500  0.46450100  1
  C  123  1  0.55520200  0.57532500  0.42227300  1
  C  124  1  0.50880200  0.59205800  0.40243100  1
  C  125  1  0.46267300  0.57457000  0.42229200  1
  C  126  1  0.46404000  0.54194500  0.46434000  1
  C  129  1  0.50972200  0.49100300  0.53181200  1
  C  130  1  0.55513400  0.47287000  0.55418800  1
  C  131  1  0.55664300  0.44014000  0.59609400  1
  C  132  1  0.51054400  0.42210400  0.61538300  1
  C  133  1  0.46403600  0.44048900  0.59737000  1
  C  134  1  0.46475700  0.47354200  0.55562200  1
  C  141  1  0.00875900  0.49285800  0.98767500  1
  C  142  1  0.96374500  0.47414200  0.96499900  1
  C  143  1  0.96287000  0.44161900  0.92288000  1
  C  144  1  0.00926400  0.42504400  0.90290300  1
  C  145  1  0.05538900  0.44269300  0.92259800  1
  C  146  1  0.05406800  0.47552800  0.96448500  1
  C  149  1  0.00844000  0.52665000  0.03186300  1
  C  150  1  0.96303900  0.54506500  0.05405000  1
  C  151  1  0.96158600  0.57795700  0.09583700  1
  C  152  1  0.00769300  0.59590200  0.11516600  1
  C  153  1  0.05416600  0.57735200  0.09725200  1
  C  154  1  0.05342700  0.54406600  0.05568200  1
  C  161  1  0.90755100  0.91634700  0.16859800  1
  C  163  1  0.84684400  0.85155500  0.15441000  1
  C  164  1  0.85113500  0.86082100  0.10218500  1
  C  166  1  0.91659500  0.92093500  0.11637100  1
  C  169  1  0.61045000  0.10199300  0.66782000  1
  C  171  1  0.67105200  0.16695100  0.65381200  1
  C  172  1  0.66666667  0.15781000  0.60156400  1
  C  174  1  0.60134600  0.09755500  0.61557800  1
  C  177  1  0.35425900  0.65857300  0.41909700  1
  C  179  1  0.41667200  0.59561700  0.40411000  1
  C  180  1  0.40517600  0.59853400  0.35225300  1
  C  182  1  0.34792900  0.66648700  0.36685200  1
  C  185  1  0.16358400  0.35839800  0.91906900  1
  C  187  1  0.10137600  0.42170200  0.90434500  1
  C  188  1  0.11281200  0.41877000  0.85246800  1
  C  190  1  0.16986500  0.35056300  0.86679800  1
  C  193  1  0.61149400  0.91873500  0.35138700  1
  C  195  1  0.66927200  0.85138300  0.36606100  1
  C  196  1  0.66331800  0.85955900  0.41831200  1
  C  198  1  0.60029100  0.92202700  0.40328700  1
  C  201  1  0.90912800  0.10056800  0.85085700  1
  C  203  1  0.84868700  0.16562800  0.86506300  1
  C  204  1  0.85283200  0.15619700  0.91727400  1
  C  206  1  0.91800600  0.09577500  0.90309100  1
  C  209  1  0.16797500  0.65450300  0.10322700  1
  C  211  1  0.09987200  0.59735900  0.11745500  1
  C  212  1  0.10745900  0.60378200  0.16975800  1
  C  214  1  0.17074200  0.66606300  0.15506300  1
  C  217  1  0.35001200  0.36365100  0.60318500  1
  C  219  1  0.41833500  0.42041100  0.61753400  1
  C  220  1  0.41070200  0.41404400  0.66982400  1
  C  222  1  0.34724400  0.35195300  0.65501000  1
  C  225  1  0.11141400  0.10043000  0.85183300  1
  C  227  1  0.17103600  0.16625100  0.86594900  1
  C  228  1  0.16656700  0.15724600  0.91820500  1
  C  230  1  0.10209900  0.09605500  0.90403300  1
  C  233  1  0.40450000  0.91882100  0.35212100  1
  C  235  1  0.34741400  0.85082300  0.36678400  1
  C  236  1  0.35365200  0.85881600  0.41904800  1
  C  238  1  0.41602200  0.92185800  0.40395200  1
  C  241  1  0.66823600  0.36005300  0.60102300  1
  C  243  1  0.60263400  0.41992700  0.61524100  1
  C  244  1  0.61200800  0.41571400  0.66745900  1
  C  246  1  0.67295900  0.35103400  0.65324200  1
  C  249  1  0.85059000  0.65871900  0.10107900  1
  C  251  1  0.91563000  0.59821800  0.11501700  1
  C  252  1  0.90621000  0.60212700  0.16724000  1
  C  254  1  0.84582200  0.66744000  0.15336500  1
  C  257  1  0.40898300  0.10455100  0.66847300  1
  C  259  1  0.34671300  0.16770400  0.65365100  1
  C  260  1  0.34986700  0.15666900  0.60171000  1
  C  262  1  0.41713300  0.09863700  0.61622000  1
  C  265  1  0.10884000  0.91337000  0.16921200  1
  C  267  1  0.17124300  0.85032000  0.15442200  1
  C  268  1  0.16818600  0.86150000  0.10249800  1
  C  270  1  0.10080500  0.91944100  0.11695900  1
  C  273  1  0.85420200  0.35764400  0.91949700  1
  C  275  1  0.91712400  0.42011800  0.90455900  1
  C  276  1  0.90571100  0.41722000  0.85268500  1
  C  278  1  0.84782700  0.34980800  0.86725200  1
  C  281  1  0.66395600  0.65915800  0.41878500  1
  C  283  1  0.60092500  0.59677700  0.40389200  1
  C  284  1  0.61223300  0.59976500  0.35199700  1
  C  286  1  0.67015800  0.66714000  0.36653000  1
  C  289  1  0.00967700  0.02497700  0.28837600  1
  C  290  1  0.05499600  0.04297800  0.26568500  1
  C  291  1  0.05626500  0.07570600  0.22372700  1
  C  292  1  0.01008300  0.09364500  0.20453500  1
  C  293  1  0.96373400  0.07551100  0.22310000  1
  C  294  1  0.96460900  0.04259000  0.26489600  1
  C  297  1  0.00939900  0.99118900  0.33255000  1
  C  298  1  0.05441700  0.97285300  0.35559200  1
  C  299  1  0.05517400  0.93984500  0.39737000  1
  C  300  1  0.00866900  0.92203900  0.41592900  1
  C  301  1  0.96260000  0.94073100  0.39722900  1
  C  302  1  0.96401900  0.97387100  0.35563600  1
  C  309  1  0.50845700  0.99359600  0.78739000  1
  C  310  1  0.46319900  0.97556000  0.76465400  1
  C  311  1  0.46194500  0.94307800  0.72249300  1
  C  312  1  0.50814100  0.92609700  0.70237000  1
  C  313  1  0.55446200  0.94322400  0.72202800  1
  C  314  1  0.55352300  0.97579300  0.76410200  1
  C  317  1  0.50867800  0.02717300  0.83173200  1
  C  318  1  0.46363000  0.04535300  0.85484400  1
  C  319  1  0.46281200  0.07823300  0.89672300  1
  C  320  1  0.50928300  0.09602900  0.91537400  1
  C  321  1  0.55538600  0.07756100  0.89653500  1
  C  322  1  0.55402700  0.04463900  0.85476900  1
  C  329  1  0.24268200  0.75832100  0.53856600  1
  C  330  1  0.22499100  0.80343600  0.51527900  1
  C  331  1  0.19238700  0.80446900  0.47321700  1
  C  332  1  0.17506200  0.75817800  0.45361700  1
  C  333  1  0.19193600  0.71194400  0.47373200  1
  C  334  1  0.22447400  0.71311500  0.51584900  1
  C  337  1  0.27644200  0.75843000  0.58278900  1
  C  338  1  0.29409700  0.80368800  0.60590100  1
  C  339  1  0.32742100  0.80491200  0.64739300  1
  C  340  1  0.34612000  0.75865900  0.66568300  1
  C  341  1  0.32784200  0.71227800  0.64728600  1
  C  342  1  0.29457600  0.71328400  0.60573700  1
  C  349  1  0.27516100  0.25940600  0.03800930  1
  C  350  1  0.29286400  0.21438500  0.01454030  1
  C  351  1  0.32557100  0.21351800  0.97256000  1
  C  352  1  0.34284800  0.25989100  0.95313100  1
  C  353  1  0.32593300  0.30603700  0.97340800  1
  C  354  1  0.29340400  0.30470900  0.01552830  1
  C  357  1  0.24145500  0.25910900  0.08226430  1
  C  358  1  0.22401900  0.21372200  0.10524800  1
  C  359  1  0.19091200  0.21228200  0.14687600  1
  C  360  1  0.17228400  0.25836000  0.16562900  1
  C  361  1  0.19015300  0.30488000  0.14715000  1
  C  362  1  0.22315600  0.30411800  0.10536500  1
  C  369  1  0.77699100  0.25829200  0.08228730  1
  C  370  1  0.79538700  0.21292800  0.10454200  1
  C  371  1  0.82827900  0.21153300  0.14632400  1
  C  372  1  0.84628400  0.25766400  0.16554600  1
  C  373  1  0.82773000  0.30409900  0.14754800  1
  C  374  1  0.79437700  0.30331300  0.10604400  1
  C  377  1  0.74312000  0.25854800  0.03818530  1
  C  378  1  0.72448000  0.21347600  0.01552030  1
  C  379  1  0.69181300  0.21259000  0.97352800  1
  C  380  1  0.67432200  0.25899300  0.95447500  1
  C  381  1  0.69296600  0.30512800  0.97309300  1
  C  382  1  0.72604900  0.30385800  0.01477730  1
  C  389  1  0.74123500  0.75935700  0.58257200  1
  C  390  1  0.72291400  0.80453600  0.60529900  1
  C  391  1  0.68957600  0.80559100  0.64677600  1
  C  392  1  0.67133000  0.75924800  0.66527700  1
  C  393  1  0.69015000  0.71299900  0.64712500  1
  C  394  1  0.72369900  0.71412900  0.60581900  1
  C  397  1  0.77521100  0.75940200  0.53854200  1
  C  398  1  0.79350200  0.80462600  0.51590000  1
  C  399  1  0.82632600  0.80576000  0.47402700  1
  C  400  1  0.84409900  0.75949600  0.45489200  1
  C  401  1  0.82566900  0.71322400  0.47337300  1
  C  402  1  0.79262800  0.71423800  0.51508900  1
  C  409  1  0.50936200  0.52454800  0.78779200  1
  C  410  1  0.55435300  0.54295500  0.76484500  1
  C  411  1  0.55520200  0.57532500  0.72261700  1
  C  412  1  0.50880200  0.59205800  0.70277500  1
  C  413  1  0.46267300  0.57457000  0.72263600  1
  C  414  1  0.46404000  0.54194500  0.76468400  1
  C  417  1  0.50972200  0.49100300  0.83215600  1
  C  418  1  0.55513400  0.47287000  0.85453200  1
  C  419  1  0.55664300  0.44014000  0.89643800  1
  C  420  1  0.51054400  0.42210400  0.91572700  1
  C  421  1  0.46403600  0.44048900  0.89771400  1
  C  422  1  0.46475700  0.47354200  0.85596600  1
  C  429  1  0.00875900  0.49285800  0.28801900  1
  C  430  1  0.96374500  0.47414200  0.26534300  1
  C  431  1  0.96287000  0.44161900  0.22322400  1
  C  432  1  0.00926400  0.42504400  0.20324700  1
  C  433  1  0.05538900  0.44269300  0.22294200  1
  C  434  1  0.05406800  0.47552800  0.26482900  1
  C  437  1  0.00844000  0.52665000  0.33220700  1
  C  438  1  0.96303900  0.54506500  0.35439400  1
  C  439  1  0.96158600  0.57795700  0.39618100  1
  C  440  1  0.00769300  0.59590200  0.41551000  1
  C  441  1  0.05416600  0.57735200  0.39759600  1
  C  442  1  0.05342700  0.54406600  0.35602600  1
  C  449  1  0.90755100  0.91634700  0.46894200  1
  C  451  1  0.84684400  0.85155500  0.45475400  1
  C  452  1  0.85113500  0.86082100  0.40252900  1
  C  454  1  0.91659500  0.92093500  0.41671500  1
  C  457  1  0.61045000  0.10199300  0.96816400  1
  C  459  1  0.67105200  0.16695100  0.95415600  1
  C  460  1  0.66666667  0.15781000  0.90190800  1
  C  462  1  0.60134600  0.09755500  0.91592200  1
  C  465  1  0.35425900  0.65857300  0.71944100  1
  C  467  1  0.41667200  0.59561700  0.70445400  1
  C  468  1  0.40517600  0.59853400  0.65259700  1
  C  470  1  0.34792900  0.66648700  0.66719600  1
  C  473  1  0.16358400  0.35839800  0.21941300  1
  C  475  1  0.10137600  0.42170200  0.20468900  1
  C  476  1  0.11281200  0.41877000  0.15281200  1
  C  478  1  0.16986500  0.35056300  0.16714200  1
  C  481  1  0.61149400  0.91873500  0.65173100  1
  C  483  1  0.66927200  0.85138300  0.66640500  1
  C  484  1  0.66331800  0.85955900  0.71865600  1
  C  486  1  0.60029100  0.92202700  0.70363100  1
  C  489  1  0.90912800  0.10056800  0.15120100  1
  C  491  1  0.84868700  0.16562800  0.16540700  1
  C  492  1  0.85283200  0.15619700  0.21761800  1
  C  494  1  0.91800600  0.09577500  0.20343500  1
  C  497  1  0.16797500  0.65450300  0.40357100  1
  C  499  1  0.09987200  0.59735900  0.41779900  1
  C  500  1  0.10745900  0.60378200  0.47010200  1
  C  502  1  0.17074200  0.66606300  0.45540700  1
  C  505  1  0.35001200  0.36365100  0.90352900  1
  C  507  1  0.41833500  0.42041100  0.91787800  1
  C  508  1  0.41070200  0.41404400  0.97016800  1
  C  510  1  0.34724400  0.35195300  0.95535400  1
  C  513  1  0.11141400  0.10043000  0.15217700  1
  C  515  1  0.17103600  0.16625100  0.16629300  1
  C  516  1  0.16656700  0.15724600  0.21854900  1
  C  518  1  0.10209900  0.09605500  0.20437700  1
  C  521  1  0.40450000  0.91882100  0.65246500  1
  C  523  1  0.34741400  0.85082300  0.66712800  1
  C  524  1  0.35365200  0.85881600  0.71939200  1
  C  526  1  0.41602200  0.92185800  0.70429600  1
  C  529  1  0.66823600  0.36005300  0.90136700  1
  C  531  1  0.60263400  0.41992700  0.91558500  1
  C  532  1  0.61200800  0.41571400  0.96780300  1
  C  534  1  0.67295900  0.35103400  0.95358600  1
  C  537  1  0.85059000  0.65871900  0.40142300  1
  C  539  1  0.91563000  0.59821800  0.41536100  1
  C  540  1  0.90621000  0.60212700  0.46758400  1
  C  542  1  0.84582200  0.66744000  0.45370900  1
  C  545  1  0.40898300  0.10455100  0.96881700  1
  C  547  1  0.34671300  0.16770400  0.95399500  1
  C  548  1  0.34986700  0.15666900  0.90205400  1
  C  550  1  0.41713300  0.09863700  0.91656400  1
  C  553  1  0.10884000  0.91337000  0.46955600  1
  C  555  1  0.17124300  0.85032000  0.45476600  1
  C  556  1  0.16818600  0.86150000  0.40284200  1
  C  558  1  0.10080500  0.91944100  0.41730300  1
  C  561  1  0.85420200  0.35764400  0.21984100  1
  C  563  1  0.91712400  0.42011800  0.20490300  1
  C  564  1  0.90571100  0.41722000  0.15302900  1
  C  566  1  0.84782700  0.34980800  0.16759600  1
  C  569  1  0.66395600  0.65915800  0.71912900  1
  C  571  1  0.60092500  0.59677700  0.70423600  1
  C  572  1  0.61223300  0.59976500  0.65234100  1
  C  574  1  0.67015800  0.66714000  0.66687400  1
  N  162  1  0.87536500  0.88045600  0.18535000  1
  N  165  1  0.88737900  0.89265400  0.08548100  1
  N  170  1  0.64261700  0.13786600  0.68465800  1
  N  173  1  0.63053900  0.12595600  0.58478900  1
  N  178  1  0.38990300  0.62586100  0.43531900  1
  N  181  1  0.37377400  0.63528500  0.33574200  1
  N  186  1  0.12807900  0.39121700  0.93538500  1
  N  189  1  0.14409700  0.38197400  0.83584000  1
  N  194  1  0.64316900  0.88225400  0.33486500  1
  N  197  1  0.62743500  0.89205700  0.43445600  1
  N  202  1  0.87714500  0.13665600  0.83412800  1
  N  205  1  0.88884300  0.12411100  0.93398100  1
  N  210  1  0.13140600  0.62301600  0.08652700  1
  N  213  1  0.14008200  0.63950100  0.18606100  1
  N  218  1  0.38669300  0.39501700  0.58651600  1
  N  221  1  0.37796800  0.37839600  0.68604300  1
  N  226  1  0.14314700  0.13671100  0.83503300  1
  N  229  1  0.13070100  0.12497900  0.93490100  1
  N  234  1  0.37305700  0.88212300  0.33562300  1
  N  237  1  0.38938500  0.89150100  0.43516900  1
  N  242  1  0.63192500  0.39179600  0.58430100  1
  N  245  1  0.64429100  0.37986100  0.68413200  1
  N  250  1  0.88666900  0.62680000  0.08418900  1
  N  253  1  0.87416000  0.63811200  0.18408800  1
  N  258  1  0.37647400  0.14033300  0.68480800  1
  N  261  1  0.38638200  0.12503700  0.58513500  1
  N  266  1  0.14135000  0.87758800  0.18554000  1
  N  269  1  0.13167300  0.89312700  0.08591100  1
  N  274  1  0.89003700  0.39014400  0.93575700  1
  N  277  1  0.87401400  0.38074700  0.83616300  1
  N  282  1  0.62814000  0.62666500  0.43506000  1
  N  285  1  0.64388200  0.63627200  0.33546400  1
  N  450  1  0.87536500  0.88045600  0.48569400  1
  N  453  1  0.88737900  0.89265400  0.38582500  1
  N  458  1  0.64261700  0.13786600  0.98500200  1
  N  461  1  0.63053900  0.12595600  0.88513300  1
  N  466  1  0.38990300  0.62586100  0.73566300  1
  N  469  1  0.37377400  0.63528500  0.63608600  1
  N  474  1  0.12807900  0.39121700  0.23572900  1
  N  477  1  0.14409700  0.38197400  0.13618400  1
  N  482  1  0.64316900  0.88225400  0.63520900  1
  N  485  1  0.62743500  0.89205700  0.73480000  1
  N  490  1  0.87714500  0.13665600  0.13447200  1
  N  493  1  0.88884300  0.12411100  0.23432500  1
  N  498  1  0.13140600  0.62301600  0.38687100  1
  N  501  1  0.14008200  0.63950100  0.48640500  1
  N  506  1  0.38669300  0.39501700  0.88686000  1
  N  509  1  0.37796800  0.37839600  0.98638700  1
  N  514  1  0.14314700  0.13671100  0.13537700  1
  N  517  1  0.13070100  0.12497900  0.23524500  1
  N  522  1  0.37305700  0.88212300  0.63596700  1
  N  525  1  0.38938500  0.89150100  0.73551300  1
  N  530  1  0.63192500  0.39179600  0.88464500  1
  N  533  1  0.64429100  0.37986100  0.98447600  1
  N  538  1  0.88666900  0.62680000  0.38453300  1
  N  541  1  0.87416000  0.63811200  0.48443200  1
  N  546  1  0.37647400  0.14033300  0.98515200  1
  N  549  1  0.38638200  0.12503700  0.88547900  1
  N  554  1  0.14135000  0.87758800  0.48588400  1
  N  557  1  0.13167300  0.89312700  0.38625500  1
  N  562  1  0.89003700  0.39014400  0.23610100  1
  N  565  1  0.87401400  0.38074700  0.13650700  1
  N  570  1  0.62814000  0.62666500  0.73540400  1
  N  573  1  0.64388200  0.63627200  0.63580800  1
  O  8  1  0.01020800  0.13194200  0.86988000  1
  O  15  1  0.00809900  0.88326000  0.14933800  1
  O  28  1  0.50801800  0.88643700  0.36929900  1
  O  35  1  0.50976000  0.13468500  0.64893200  1
  O  48  1  0.13542600  0.75814800  0.12051700  1
  O  55  1  0.38549600  0.75877900  0.39839900  1
  O  68  1  0.38254900  0.25999400  0.62010600  1
  O  75  1  0.13341100  0.25778700  0.89893100  1
  O  88  1  0.88509200  0.25729900  0.89892300  1
  O  95  1  0.63593400  0.25928500  0.61991800  1
  O  108  1  0.63197300  0.75915400  0.39802000  1
  O  115  1  0.88253600  0.75950000  0.12039200  1
  O  128  1  0.50849800  0.63177100  0.36976900  1
  O  135  1  0.51102500  0.38328500  0.64909300  1
  O  148  1  0.00953600  0.38530800  0.87026300  1
  O  155  1  0.00723500  0.63475500  0.14883900  1
  O  296  1  0.01020800  0.13194200  0.17022400  1
  O  303  1  0.00809900  0.88326000  0.44968200  1
  O  316  1  0.50801800  0.88643700  0.66964300  1
  O  323  1  0.50976000  0.13468500  0.94927600  1
  O  336  1  0.13542600  0.75814800  0.42086100  1
  O  343  1  0.38549600  0.75877900  0.69874300  1
  O  356  1  0.38254900  0.25999400  0.92045000  1
  O  363  1  0.13341100  0.25778700  0.19927500  1
  O  376  1  0.88509200  0.25729900  0.19926700  1
  O  383  1  0.63593400  0.25928500  0.92026200  1
  O  396  1  0.63197300  0.75915400  0.69836400  1
  O  403  1  0.88253600  0.75950000  0.42073600  1
  O  416  1  0.50849800  0.63177100  0.67011300  1
  O  423  1  0.51102500  0.38328500  0.94943700  1
  O  436  1  0.00953600  0.38530800  0.17060700  1
  O  443  1  0.00723500  0.63475500  0.44918300  1
