# generated using pymatgen
data_LaH26C42(NO6)2
_symmetry_space_group_name_H-M   'P 1'
_cell_length_a   16.23758371
_cell_length_b   16.23987000
_cell_length_c   30.54141000
_cell_angle_alpha   90.00309000
_cell_angle_beta   90.00150142
_cell_angle_gamma   119.97798590
_symmetry_Int_Tables_number   1
_chemical_formula_structural   LaH26C42(NO6)2
_chemical_formula_sum   'La6 H156 C252 N12 O72'
_cell_volume   6976.21667899
_cell_formula_units_Z   6
loop_
 _symmetry_equiv_pos_site_id
 _symmetry_equiv_pos_as_xyz
  1  'x, y, z'
loop_
 _atom_site_type_symbol
 _atom_site_label
 _atom_site_symmetry_multiplicity
 _atom_site_fract_x
 _atom_site_fract_y
 _atom_site_fract_z
 _atom_site_occupancy
  La  La0  1  0.35699000  0.00003000  0.50000000  1
  La  La1  1  0.00010000  0.35686000  0.16664000  1
  La  La2  1  0.64296000  0.64292000  0.83332000  1
  La  La3  1  0.64299000  0.99990000  0.50007000  1
  La  La4  1  0.99995000  0.64293000  0.16671000  1
  La  La5  1  0.35698000  0.35702000  0.83335000  1
  H  H6  1  0.83473000  0.56410000  0.27472000  1
  H  H7  1  0.49090000  0.24996000  0.45939000  1
  H  H8  1  0.68576000  0.52255000  0.50115000  1
  H  H9  1  0.54678000  0.42026000  0.44365000  1
  H  H10  1  0.76124000  0.28699000  0.42022000  1
  H  H11  1  0.00395000  0.79397000  0.36264000  1
  H  H12  1  0.71186000  0.48357000  0.33297000  1
  H  H13  1  0.70003000  0.69342000  0.38993000  1
  H  H14  1  0.66612000  0.63416000  0.55039000  1
  H  H15  1  0.88127000  0.71695000  0.42056000  1
  H  H16  1  0.12987000  0.82558000  0.26324000  1
  H  H17  1  0.81978000  0.45879000  0.40465000  1
  H  H18  1  0.68315000  0.80547000  0.44031000  1
  H  H19  1  0.43591000  0.27063000  0.94144000  1
  H  H20  1  0.75017000  0.24101000  0.12608000  1
  H  H21  1  0.47714000  0.16300000  0.16791000  1
  H  H22  1  0.57982000  0.12662000  0.11037000  1
  H  H23  1  0.71301000  0.47423000  0.08690000  1
  H  H24  1  0.20594000  0.20986000  0.02931000  1
  H  H25  1  0.51643000  0.22821000  0.99968000  1
  H  H26  1  0.30706000  0.00706000  0.05633000  1
  H  H27  1  0.36515000  0.03127000  0.21692000  1
  H  H28  1  0.28304000  0.16426000  0.08723000  1
  H  H29  1  0.17431000  0.30424000  0.92994000  1
  H  H30  1  0.54121000  0.36101000  0.07134000  1
  H  H31  1  0.19472000  0.87772000  0.10651000  1
  H  H32  1  0.72940000  0.16532000  0.60803000  1
  H  H33  1  0.75906000  0.50916000  0.79271000  1
  H  H34  1  0.83674000  0.31408000  0.83447000  1
  H  H35  1  0.87347000  0.45324000  0.77693000  1
  H  H36  1  0.52578000  0.23884000  0.75356000  1
  H  H37  1  0.79008000  0.99605000  0.69593000  1
  H  H38  1  0.77172000  0.28814000  0.66630000  1
  H  H39  1  0.99318000  0.29996000  0.72314000  1
  H  H40  1  0.96817000  0.33377000  0.88365000  1
  H  H41  1  0.83569000  0.11870000  0.75386000  1
  H  H42  1  0.69577000  0.86986000  0.59670000  1
  H  H43  1  0.63905000  0.18026000  0.73793000  1
  H  H44  1  0.12226000  0.31690000  0.77347000  1
  H  H45  1  0.16536000  0.43590000  0.27471000  1
  H  H46  1  0.50912000  0.74999000  0.45941000  1
  H  H47  1  0.31415000  0.47724000  0.50120000  1
  H  H48  1  0.45322000  0.57971000  0.44363000  1
  H  H49  1  0.23877000  0.71302000  0.42028000  1
  H  H50  1  0.99610000  0.20599000  0.36260000  1
  H  H51  1  0.28816000  0.51645000  0.33298000  1
  H  H52  1  0.30004000  0.30689000  0.38976000  1
  H  H53  1  0.33383000  0.36539000  0.55030000  1
  H  H54  1  0.11869000  0.28301000  0.42055000  1
  H  H55  1  0.87015000  0.17437000  0.26321000  1
  H  H56  1  0.18023000  0.54125000  0.40466000  1
  H  H57  1  0.31691000  0.19463000  0.44005000  1
  H  H58  1  0.56414000  0.72941000  0.94142000  1
  H  H59  1  0.24987000  0.75899000  0.12609000  1
  H  H60  1  0.52288000  0.83701000  0.16790000  1
  H  H61  1  0.42018000  0.87339000  0.11034000  1
  H  H62  1  0.28708000  0.52576000  0.08692000  1
  H  H63  1  0.79411000  0.79016000  0.02932000  1
  H  H64  1  0.48360000  0.77177000  0.99967000  1
  H  H65  1  0.69299000  0.99298000  0.05635000  1
  H  H66  1  0.63485000  0.96870000  0.21692000  1
  H  H67  1  0.71697000  0.83572000  0.08724000  1
  H  H68  1  0.82566000  0.69581000  0.92987000  1
  H  H69  1  0.45885000  0.63902000  0.07132000  1
  H  H70  1  0.80531000  0.12228000  0.10654000  1
  H  H71  1  0.27064000  0.83475000  0.60804000  1
  H  H72  1  0.24093000  0.49086000  0.79272000  1
  H  H73  1  0.16307000  0.68593000  0.83450000  1
  H  H74  1  0.12656000  0.54686000  0.77696000  1
  H  H75  1  0.47428000  0.76114000  0.75357000  1
  H  H76  1  0.20988000  0.00394000  0.69596000  1
  H  H77  1  0.22828000  0.71187000  0.66629000  1
  H  H78  1  0.00701000  0.70003000  0.72298000  1
  H  H79  1  0.03140000  0.66623000  0.88353000  1
  H  H80  1  0.16431000  0.88126000  0.75387000  1
  H  H81  1  0.30425000  0.12988000  0.59656000  1
  H  H82  1  0.36107000  0.81977000  0.73795000  1
  H  H83  1  0.87772000  0.68306000  0.77318000  1
  H  H84  1  0.56419000  0.83474000  0.39199000  1
  H  H85  1  0.25001000  0.49088000  0.20731000  1
  H  H86  1  0.52266000  0.68586000  0.16552000  1
  H  H87  1  0.42034000  0.54687000  0.22308000  1
  H  H88  1  0.28686000  0.76117000  0.24643000  1
  H  H89  1  0.79404000  0.00394000  0.30405000  1
  H  H90  1  0.48360000  0.71192000  0.33373000  1
  H  H91  1  0.69307000  0.70003000  0.27692000  1
  H  H92  1  0.63448000  0.66619000  0.11639000  1
  H  H93  1  0.71694000  0.88128000  0.24612000  1
  H  H94  1  0.82579000  0.12979000  0.40348000  1
  H  H95  1  0.45869000  0.81979000  0.26203000  1
  H  H96  1  0.80531000  0.68309000  0.22665000  1
  H  H97  1  0.27067000  0.43593000  0.72528000  1
  H  H98  1  0.24096000  0.75011000  0.54060000  1
  H  H99  1  0.16316000  0.47735000  0.49883000  1
  H  H100  1  0.12658000  0.57982000  0.55636000  1
  H  H101  1  0.47424000  0.71304000  0.57979000  1
  H  H102  1  0.20991000  0.20598000  0.63738000  1
  H  H103  1  0.22834000  0.51647000  0.66702000  1
  H  H104  1  0.00702000  0.30699000  0.61026000  1
  H  H105  1  0.03167000  0.36553000  0.44971000  1
  H  H106  1  0.16432000  0.28307000  0.57946000  1
  H  H107  1  0.30425000  0.17436000  0.73680000  1
  H  H108  1  0.36099000  0.54123000  0.59539000  1
  H  H109  1  0.87784000  0.19482000  0.56000000  1
  H  H110  1  0.16528000  0.72946000  0.05859000  1
  H  H111  1  0.50914000  0.75898000  0.87394000  1
  H  H112  1  0.31410000  0.83698000  0.83212000  1
  H  H113  1  0.45317000  0.87339000  0.88965000  1
  H  H114  1  0.23878000  0.52575000  0.91309000  1
  H  H115  1  0.99602000  0.79012000  0.97068000  1
  H  H116  1  0.28818000  0.77178000  0.00035000  1
  H  H117  1  0.29998000  0.99302000  0.94364000  1
  H  H118  1  0.33386000  0.96863000  0.78309000  1
  H  H119  1  0.11871000  0.83570000  0.91277000  1
  H  H120  1  0.87017000  0.69587000  0.07010000  1
  H  H121  1  0.18017000  0.63899000  0.92865000  1
  H  H122  1  0.31702000  0.12231000  0.89344000  1
  H  H123  1  0.43592000  0.16531000  0.39193000  1
  H  H124  1  0.74998000  0.50908000  0.20726000  1
  H  H125  1  0.47734000  0.31412000  0.16551000  1
  H  H126  1  0.57969000  0.45321000  0.22306000  1
  H  H127  1  0.71299000  0.23876000  0.24644000  1
  H  H128  1  0.20597000  0.99608000  0.30403000  1
  H  H129  1  0.51637000  0.28820000  0.33369000  1
  H  H130  1  0.30668000  0.30003000  0.27679000  1
  H  H131  1  0.36562000  0.33379000  0.11631000  1
  H  H132  1  0.28299000  0.11878000  0.24611000  1
  H  H133  1  0.17443000  0.87020000  0.40345000  1
  H  H134  1  0.54120000  0.18026000  0.26208000  1
  H  H135  1  0.19452000  0.31688000  0.22645000  1
  H  H136  1  0.72931000  0.56405000  0.72526000  1
  H  H137  1  0.75895000  0.24988000  0.54055000  1
  H  H138  1  0.83701000  0.52288000  0.49878000  1
  H  H139  1  0.87337000  0.42016000  0.55637000  1
  H  H140  1  0.52570000  0.28699000  0.57978000  1
  H  H141  1  0.79010000  0.79402000  0.63739000  1
  H  H142  1  0.77174000  0.48356000  0.66702000  1
  H  H143  1  0.99297000  0.69293000  0.61036000  1
  H  H144  1  0.96872000  0.63492000  0.44978000  1
  H  H145  1  0.83569000  0.71693000  0.57947000  1
  H  H146  1  0.69569000  0.82561000  0.73680000  1
  H  H147  1  0.63895000  0.45875000  0.59542000  1
  H  H148  1  0.12225000  0.80530000  0.56019000  1
  H  H149  1  0.83469000  0.27052000  0.05859000  1
  H  H150  1  0.49085000  0.24101000  0.87393000  1
  H  H151  1  0.68584000  0.16303000  0.83213000  1
  H  H152  1  0.54679000  0.12660000  0.88969000  1
  H  H153  1  0.76123000  0.47424000  0.91307000  1
  H  H154  1  0.00397000  0.20986000  0.97068000  1
  H  H155  1  0.71184000  0.22823000  0.00033000  1
  H  H156  1  0.70003000  0.00701000  0.94361000  1
  H  H157  1  0.66612000  0.03141000  0.78307000  1
  H  H158  1  0.88130000  0.16430000  0.91276000  1
  H  H159  1  0.13013000  0.30438000  0.06999000  1
  H  H160  1  0.81980000  0.36097000  0.92868000  1
  H  H161  1  0.68305000  0.87773000  0.89340000  1
  C  C162  1  0.62192000  0.25771000  0.43976000  1
  C  C163  1  0.68710000  0.45068000  0.42277000  1
  C  C164  1  0.84310000  0.59653000  0.30678000  1
  C  C165  1  0.56248000  0.29630000  0.44706000  1
  C  C166  1  0.68430000  0.58378000  0.48773000  1
  C  C167  1  0.59393000  0.39156000  0.43853000  1
  C  C168  1  0.78870000  0.59515000  0.38056000  1
  C  C169  1  0.71504000  0.31715000  0.42458000  1
  C  C170  1  0.69771000  0.60277000  0.44244000  1
  C  C171  1  0.93893000  0.72742000  0.35601000  1
  C  C172  1  0.77521000  0.55168000  0.33929000  1
  C  C173  1  0.69332000  0.68092000  0.42507000  1
  C  C174  1  0.67315000  0.64583000  0.51519000  1
  C  C175  1  0.58659000  0.15407000  0.44870000  1
  C  C176  1  0.87050000  0.68377000  0.38856000  1
  C  C177  1  0.99571000  0.72794000  0.27840000  1
  C  C178  1  0.67541000  0.80164000  0.52790000  1
  C  C179  1  0.74747000  0.41254000  0.41600000  1
  C  C180  1  0.92543000  0.68425000  0.31479000  1
  C  C181  1  0.68327000  0.74281000  0.45293000  1
  C  C182  1  0.67538000  0.72732000  0.49842000  1
  C  C183  1  0.74237000  0.36422000  0.10644000  1
  C  C184  1  0.54937000  0.23651000  0.08948000  1
  C  C185  1  0.40352000  0.24660000  0.97350000  1
  C  C186  1  0.70377000  0.26622000  0.11375000  1
  C  C187  1  0.41610000  0.10037000  0.15436000  1
  C  C188  1  0.60853000  0.20246000  0.10525000  1
  C  C189  1  0.40491000  0.19362000  0.04726000  1
  C  C190  1  0.68287000  0.39790000  0.09125000  1
  C  C191  1  0.39731000  0.09496000  0.10903000  1
  C  C192  1  0.27254000  0.21146000  0.02269000  1
  C  C193  1  0.44837000  0.22355000  0.00600000  1
  C  C194  1  0.31934000  0.01257000  0.09149000  1
  C  C195  1  0.35391000  0.02698000  0.18168000  1
  C  C196  1  0.84601000  0.43255000  0.11537000  1
  C  C197  1  0.31625000  0.18673000  0.05525000  1
  C  C198  1  0.27241000  0.26817000  0.94512000  1
  C  C199  1  0.19804000  0.87338000  0.19390000  1
  C  C200  1  0.58751000  0.33498000  0.08270000  1
  C  C201  1  0.31581000  0.24121000  0.98150000  1
  C  C202  1  0.25734000  0.94046000  0.11919000  1
  C  C203  1  0.27266000  0.94789000  0.16470000  1
  C  C204  1  0.63582000  0.37817000  0.77310000  1
  C  C205  1  0.76353000  0.31288000  0.75608000  1
  C  C206  1  0.75342000  0.15692000  0.64009000  1
  C  C207  1  0.73380000  0.43753000  0.78040000  1
  C  C208  1  0.89946000  0.31563000  0.82103000  1
  C  C209  1  0.79763000  0.40608000  0.77185000  1
  C  C210  1  0.80642000  0.21128000  0.71388000  1
  C  C211  1  0.60209000  0.28499000  0.75792000  1
  C  C212  1  0.90502000  0.30229000  0.77572000  1
  C  C213  1  0.78852000  0.06108000  0.68933000  1
  C  C214  1  0.77647000  0.22477000  0.67261000  1
  C  C215  1  0.98749000  0.30670000  0.75828000  1
  C  C216  1  0.97275000  0.32681000  0.84844000  1
  C  C217  1  0.56737000  0.41339000  0.78199000  1
  C  C218  1  0.81328000  0.12949000  0.72188000  1
  C  C219  1  0.73212000  0.00428000  0.61173000  1
  C  C220  1  0.12644000  0.32458000  0.86087000  1
  C  C221  1  0.66508000  0.25257000  0.74933000  1
  C  C222  1  0.75881000  0.07457000  0.64814000  1
  C  C223  1  0.05948000  0.31677000  0.78608000  1
  C  C224  1  0.05195000  0.32464000  0.83157000  1
  C  C225  1  0.37815000  0.74229000  0.43979000  1
  C  C226  1  0.31289000  0.54934000  0.42278000  1
  C  C227  1  0.15693000  0.40345000  0.30677000  1
  C  C228  1  0.43753000  0.70366000  0.44711000  1
  C  C229  1  0.31566000  0.41611000  0.48770000  1
  C  C230  1  0.40605000  0.60840000  0.43855000  1
  C  C231  1  0.21127000  0.40488000  0.38057000  1
  C  C232  1  0.28498000  0.68288000  0.42464000  1
  C  C233  1  0.30229000  0.39727000  0.44240000  1
  C  C234  1  0.06111000  0.27256000  0.35599000  1
  C  C235  1  0.22480000  0.44833000  0.33930000  1
  C  C236  1  0.30673000  0.31925000  0.42490000  1
  C  C237  1  0.32684000  0.35398000  0.51509000  1
  C  C238  1  0.41360000  0.84598000  0.44866000  1
  C  C239  1  0.12950000  0.31623000  0.38856000  1
  C  C240  1  0.00435000  0.27189000  0.27839000  1
  C  C241  1  0.32448000  0.19799000  0.52737000  1
  C  C242  1  0.25252000  0.58749000  0.41604000  1
  C  C243  1  0.07463000  0.31572000  0.31478000  1
  C  C244  1  0.31679000  0.25729000  0.45268000  1
  C  C245  1  0.32463000  0.27264000  0.49816000  1
  C  C246  1  0.25768000  0.63579000  0.10645000  1
  C  C247  1  0.45067000  0.76351000  0.08947000  1
  C  C248  1  0.59653000  0.75342000  0.97348000  1
  C  C249  1  0.29628000  0.73378000  0.11377000  1
  C  C250  1  0.58393000  0.89963000  0.15436000  1
  C  C251  1  0.39151000  0.79755000  0.10525000  1
  C  C252  1  0.59513000  0.80639000  0.04725000  1
  C  C253  1  0.31719000  0.60210000  0.09128000  1
  C  C254  1  0.60272000  0.90505000  0.10904000  1
  C  C255  1  0.72750000  0.78854000  0.02269000  1
  C  C256  1  0.55167000  0.77644000  0.00600000  1
  C  C257  1  0.68070000  0.98744000  0.09150000  1
  C  C258  1  0.64611000  0.97301000  0.18169000  1
  C  C259  1  0.15403000  0.56745000  0.11534000  1
  C  C260  1  0.68378000  0.81325000  0.05525000  1
  C  C261  1  0.72774000  0.73202000  0.94508000  1
  C  C262  1  0.80200000  0.12659000  0.19391000  1
  C  C263  1  0.41254000  0.66503000  0.08270000  1
  C  C264  1  0.68425000  0.75881000  0.98149000  1
  C  C265  1  0.74270000  0.05955000  0.11922000  1
  C  C266  1  0.72736000  0.05209000  0.16472000  1
  C  C267  1  0.36418000  0.62184000  0.77312000  1
  C  C268  1  0.23653000  0.68716000  0.75608000  1
  C  C269  1  0.24661000  0.84311000  0.64011000  1
  C  C270  1  0.26620000  0.56248000  0.78040000  1
  C  C271  1  0.10042000  0.68435000  0.82098000  1
  C  C272  1  0.20239000  0.59395000  0.77185000  1
  C  C273  1  0.19365000  0.78876000  0.71388000  1
  C  C274  1  0.39796000  0.71501000  0.75792000  1
  C  C275  1  0.09498000  0.69770000  0.77566000  1
  C  C276  1  0.21147000  0.93893000  0.68934000  1
  C  C277  1  0.22355000  0.77523000  0.67262000  1
  C  C278  1  0.01257000  0.69328000  0.75813000  1
  C  C279  1  0.02706000  0.67318000  0.84830000  1
  C  C280  1  0.43258000  0.58660000  0.78203000  1
  C  C281  1  0.18674000  0.87051000  0.72188000  1
  C  C282  1  0.26813000  0.99578000  0.61177000  1
  C  C283  1  0.87348000  0.67553000  0.86053000  1
  C  C284  1  0.33498000  0.74744000  0.74932000  1
  C  C285  1  0.24122000  0.92544000  0.64814000  1
  C  C286  1  0.94048000  0.68319000  0.78584000  1
  C  C287  1  0.94796000  0.67535000  0.83134000  1
  C  C288  1  0.25766000  0.62186000  0.22690000  1
  C  C289  1  0.45063000  0.68715000  0.24392000  1
  C  C290  1  0.59659000  0.84315000  0.35992000  1
  C  C291  1  0.29633000  0.56249000  0.21963000  1
  C  C292  1  0.58381000  0.68435000  0.17900000  1
  C  C293  1  0.39156000  0.59396000  0.22817000  1
  C  C294  1  0.59512000  0.78878000  0.28612000  1
  C  C295  1  0.31708000  0.71502000  0.24209000  1
  C  C296  1  0.60268000  0.69773000  0.22430000  1
  C  C297  1  0.72746000  0.93896000  0.31068000  1
  C  C298  1  0.55169000  0.77528000  0.32740000  1
  C  C299  1  0.68070000  0.69329000  0.24178000  1
  C  C300  1  0.64595000  0.67318000  0.15161000  1
  C  C301  1  0.15400000  0.58647000  0.21799000  1
  C  C302  1  0.68376000  0.87055000  0.27812000  1
  C  C303  1  0.72823000  0.99570000  0.38830000  1
  C  C304  1  0.80194000  0.67548000  0.13931000  1
  C  C305  1  0.41244000  0.74747000  0.25067000  1
  C  C306  1  0.68432000  0.92545000  0.35190000  1
  C  C307  1  0.74265000  0.68320000  0.21401000  1
  C  C308  1  0.72728000  0.67536000  0.16852000  1
  C  C309  1  0.36418000  0.74234000  0.56024000  1
  C  C310  1  0.23652000  0.54938000  0.57723000  1
  C  C311  1  0.24663000  0.40352000  0.69323000  1
  C  C312  1  0.26620000  0.70373000  0.55294000  1
  C  C313  1  0.10049000  0.41622000  0.51231000  1
  C  C314  1  0.20240000  0.60850000  0.56146000  1
  C  C315  1  0.19366000  0.40494000  0.61945000  1
  C  C316  1  0.39793000  0.68289000  0.57543000  1
  C  C317  1  0.09502000  0.39736000  0.55763000  1
  C  C318  1  0.21150000  0.27259000  0.64400000  1
  C  C319  1  0.22362000  0.44837000  0.66070000  1
  C  C320  1  0.01261000  0.31937000  0.57512000  1
  C  C321  1  0.02718000  0.35405000  0.48493000  1
  C  C322  1  0.43257000  0.84596000  0.55133000  1
  C  C323  1  0.18677000  0.31627000  0.61144000  1
  C  C324  1  0.26781000  0.27214000  0.72163000  1
  C  C325  1  0.87350000  0.19794000  0.47272000  1
  C  C326  1  0.33496000  0.58752000  0.58400000  1
  C  C327  1  0.24119000  0.31576000  0.68520000  1
  C  C328  1  0.94059000  0.25742000  0.54736000  1
  C  C329  1  0.94809000  0.27272000  0.50186000  1
  C  C330  1  0.37809000  0.63577000  0.89354000  1
  C  C331  1  0.31286000  0.76351000  0.91055000  1
  C  C332  1  0.15690000  0.75346000  0.02652000  1
  C  C333  1  0.43753000  0.73376000  0.88625000  1
  C  C334  1  0.31569000  0.89962000  0.84565000  1
  C  C335  1  0.40605000  0.79757000  0.89479000  1
  C  C336  1  0.21124000  0.80637000  0.95275000  1
  C  C337  1  0.28496000  0.60209000  0.90874000  1
  C  C338  1  0.30231000  0.90504000  0.89097000  1
  C  C339  1  0.06104000  0.78853000  0.97730000  1
  C  C340  1  0.22478000  0.77648000  0.99402000  1
  C  C341  1  0.30674000  0.98745000  0.90850000  1
  C  C342  1  0.32689000  0.97297000  0.81831000  1
  C  C343  1  0.41334000  0.56739000  0.88463000  1
  C  C344  1  0.12947000  0.81327000  0.94475000  1
  C  C345  1  0.00426000  0.73211000  0.05491000  1
  C  C346  1  0.32455000  0.12659000  0.80614000  1
  C  C347  1  0.25251000  0.66505000  0.91732000  1
  C  C348  1  0.07455000  0.75882000  0.01851000  1
  C  C349  1  0.31687000  0.05955000  0.88078000  1
  C  C350  1  0.32472000  0.05206000  0.83529000  1
  C  C351  1  0.74226000  0.37809000  0.22687000  1
  C  C352  1  0.54930000  0.31290000  0.24392000  1
  C  C353  1  0.40348000  0.15693000  0.35987000  1
  C  C354  1  0.70362000  0.43748000  0.21956000  1
  C  C355  1  0.41615000  0.31563000  0.17894000  1
  C  C356  1  0.60840000  0.40605000  0.22813000  1
  C  C357  1  0.40480000  0.21131000  0.28610000  1
  C  C358  1  0.68280000  0.28493000  0.24206000  1
  C  C359  1  0.39722000  0.30230000  0.22425000  1
  C  C360  1  0.27253000  0.06108000  0.31066000  1
  C  C361  1  0.44828000  0.22482000  0.32736000  1
  C  C362  1  0.31911000  0.30672000  0.24165000  1
  C  C363  1  0.35407000  0.32682000  0.15152000  1
  C  C364  1  0.84596000  0.41346000  0.21804000  1
  C  C365  1  0.31618000  0.12952000  0.27810000  1
  C  C366  1  0.27231000  0.00427000  0.38824000  1
  C  C367  1  0.19836000  0.32469000  0.13888000  1
  C  C368  1  0.58745000  0.25254000  0.25067000  1
  C  C369  1  0.31579000  0.07460000  0.35186000  1
  C  C370  1  0.25719000  0.31678000  0.21382000  1
  C  C371  1  0.27266000  0.32467000  0.16833000  1
  C  C372  1  0.63577000  0.25769000  0.56020000  1
  C  C373  1  0.76346000  0.45064000  0.57723000  1
  C  C374  1  0.75336000  0.59645000  0.69321000  1
  C  C375  1  0.73374000  0.29629000  0.55287000  1
  C  C376  1  0.89963000  0.58394000  0.51233000  1
  C  C377  1  0.79755000  0.39152000  0.56143000  1
  C  C378  1  0.80636000  0.59508000  0.61944000  1
  C  C379  1  0.60202000  0.31715000  0.57539000  1
  C  C380  1  0.90503000  0.60269000  0.55766000  1
  C  C381  1  0.78851000  0.72742000  0.64400000  1
  C  C382  1  0.77642000  0.55163000  0.66069000  1
  C  C383  1  0.98742000  0.68067000  0.57521000  1
  C  C384  1  0.97301000  0.64615000  0.48502000  1
  C  C385  1  0.56741000  0.15402000  0.55137000  1
  C  C386  1  0.81324000  0.68373000  0.61144000  1
  C  C387  1  0.73178000  0.72754000  0.72158000  1
  C  C388  1  0.12655000  0.80205000  0.47282000  1
  C  C389  1  0.66500000  0.41251000  0.58400000  1
  C  C390  1  0.75875000  0.68416000  0.68519000  1
  C  C391  1  0.05952000  0.74270000  0.54750000  1
  C  C392  1  0.05207000  0.72741000  0.50200000  1
  C  C393  1  0.62186000  0.36424000  0.89356000  1
  C  C394  1  0.68715000  0.23650000  0.91053000  1
  C  C395  1  0.84311000  0.24654000  0.02652000  1
  C  C396  1  0.56245000  0.26624000  0.88625000  1
  C  C397  1  0.68429000  0.10039000  0.84564000  1
  C  C398  1  0.59396000  0.20244000  0.89477000  1
  C  C399  1  0.78876000  0.19362000  0.95274000  1
  C  C400  1  0.71501000  0.39791000  0.90872000  1
  C  C401  1  0.69768000  0.09497000  0.89095000  1
  C  C402  1  0.93895000  0.21145000  0.97729000  1
  C  C403  1  0.77522000  0.22350000  0.99402000  1
  C  C404  1  0.69327000  0.01256000  0.90848000  1
  C  C405  1  0.67310000  0.02705000  0.81829000  1
  C  C406  1  0.58656000  0.43261000  0.88466000  1
  C  C407  1  0.87052000  0.18671000  0.94475000  1
  C  C408  1  0.99576000  0.26786000  0.05489000  1
  C  C409  1  0.67539000  0.87341000  0.80607000  1
  C  C410  1  0.74749000  0.33496000  0.91730000  1
  C  C411  1  0.92546000  0.24117000  0.01850000  1
  C  C412  1  0.68317000  0.94049000  0.88074000  1
  C  C413  1  0.67529000  0.94795000  0.83526000  1
  N  N414  1  0.72094000  0.54806000  0.41450000  1
  N  N415  1  0.45203000  0.17301000  0.08120000  1
  N  N416  1  0.82707000  0.27903000  0.74781000  1
  N  N417  1  0.27900000  0.45198000  0.41451000  1
  N  N418  1  0.54800000  0.82701000  0.08119000  1
  N  N419  1  0.17303000  0.72104000  0.74781000  1
  N  N420  1  0.54799000  0.72103000  0.25219000  1
  N  N421  1  0.17301000  0.45205000  0.58551000  1
  N  N422  1  0.27896000  0.82700000  0.91881000  1
  N  N423  1  0.45193000  0.27906000  0.25217000  1
  N  N424  1  0.82698000  0.54796000  0.58551000  1
  N  N425  1  0.72100000  0.17298000  0.91882000  1
  O  O426  1  0.64642000  0.12579000  0.44809000  1
  O  O427  1  0.97038000  0.69867000  0.24035000  1
  O  O428  1  0.49809000  0.10245000  0.45683000  1
  O  O429  1  0.67433000  0.78961000  0.56917000  1
  O  O430  1  0.67954000  0.87262000  0.50853000  1
  O  O431  1  0.08010000  0.79599000  0.29002000  1
  O  O432  1  0.87418000  0.52062000  0.11476000  1
  O  O433  1  0.30245000  0.27307000  0.90714000  1
  O  O434  1  0.89776000  0.39577000  0.12351000  1
  O  O435  1  0.20943000  0.88387000  0.23520000  1
  O  O436  1  0.12761000  0.80693000  0.17399000  1
  O  O437  1  0.20388000  0.28385000  0.95670000  1
  O  O438  1  0.47941000  0.35354000  0.78138000  1
  O  O439  1  0.72779000  0.02952000  0.57374000  1
  O  O440  1  0.60418000  0.50196000  0.79010000  1
  O  O441  1  0.11588000  0.32551000  0.90217000  1
  O  O442  1  0.19307000  0.32053000  0.84121000  1
  O  O443  1  0.71613000  0.91998000  0.62337000  1
  O  O444  1  0.35365000  0.87415000  0.44806000  1
  O  O445  1  0.02973000  0.30081000  0.24028000  1
  O  O446  1  0.50211000  0.89772000  0.45674000  1
  O  O447  1  0.32546000  0.20930000  0.56868000  1
  O  O448  1  0.32030000  0.12736000  0.50752000  1
  O  O449  1  0.91990000  0.20406000  0.29003000  1
  O  O450  1  0.12591000  0.47942000  0.11472000  1
  O  O451  1  0.69804000  0.72758000  0.90706000  1
  O  O452  1  0.10224000  0.60421000  0.12347000  1
  O  O453  1  0.79078000  0.11613000  0.23521000  1
  O  O454  1  0.87235000  0.19305000  0.17395000  1
  O  O455  1  0.79604000  0.71599000  0.95667000  1
  O  O456  1  0.52054000  0.64639000  0.78138000  1
  O  O457  1  0.27292000  0.97064000  0.57377000  1
  O  O458  1  0.39568000  0.49799000  0.79015000  1
  O  O459  1  0.88393000  0.67475000  0.90184000  1
  O  O460  1  0.80700000  0.67944000  0.84058000  1
  O  O461  1  0.28391000  0.08000000  0.62335000  1
  O  O462  1  0.12571000  0.64629000  0.21862000  1
  O  O463  1  0.69946000  0.97036000  0.42642000  1
  O  O464  1  0.10237000  0.49794000  0.20985000  1
  O  O465  1  0.79074000  0.67475000  0.09801000  1
  O  O466  1  0.87237000  0.67932000  0.15918000  1
  O  O467  1  0.79601000  0.08015000  0.37662000  1
  O  O468  1  0.52053000  0.87420000  0.55194000  1
  O  O469  1  0.27181000  0.30141000  0.75964000  1
  O  O470  1  0.39562000  0.89766000  0.54316000  1
  O  O471  1  0.88403000  0.20903000  0.43140000  1
  O  O472  1  0.80696000  0.12773000  0.49268000  1
  O  O473  1  0.28412000  0.20401000  0.70997000  1
  O  O474  1  0.35345000  0.47936000  0.88528000  1
  O  O475  1  0.02947000  0.72781000  0.09295000  1
  O  O476  1  0.50182000  0.60421000  0.87648000  1
  O  O477  1  0.32531000  0.11616000  0.76480000  1
  O  O478  1  0.32062000  0.19302000  0.82608000  1
  O  O479  1  0.91995000  0.71603000  0.04330000  1
  O  O480  1  0.87412000  0.35356000  0.21859000  1
  O  O481  1  0.30214000  0.02951000  0.42626000  1
  O  O482  1  0.89775000  0.50204000  0.21003000  1
  O  O483  1  0.21032000  0.32593000  0.09761000  1
  O  O484  1  0.12734000  0.32042000  0.15830000  1
  O  O485  1  0.20399000  0.92000000  0.37668000  1
  O  O486  1  0.47942000  0.12595000  0.55192000  1
  O  O487  1  0.72687000  0.69748000  0.75956000  1
  O  O488  1  0.60419000  0.10214000  0.54334000  1
  O  O489  1  0.11612000  0.79075000  0.43151000  1
  O  O490  1  0.19298000  0.87247000  0.49276000  1
  O  O491  1  0.71605000  0.79605000  0.71001000  1
  O  O492  1  0.64650000  0.52065000  0.88529000  1
  O  O493  1  0.97047000  0.27212000  0.09292000  1
  O  O494  1  0.49810000  0.39588000  0.87652000  1
  O  O495  1  0.67452000  0.88378000  0.76476000  1
  O  O496  1  0.67941000  0.80695000  0.82597000  1
  O  O497  1  0.08008000  0.28397000  0.04329000  1
