# generated using pymatgen
data_H10C19N3
_symmetry_space_group_name_H-M   'P 1'
_cell_length_a   24.45765000
_cell_length_b   24.46110000
_cell_length_c   24.46110000
_cell_angle_alpha   89.99330000
_cell_angle_beta   89.99330000
_cell_angle_gamma   89.99340000
_symmetry_Int_Tables_number   1
_chemical_formula_structural   H10C19N3
_chemical_formula_sum   'H120 C228 N36'
_cell_volume   14634.12239822
_cell_formula_units_Z   12
loop_
 _symmetry_equiv_pos_site_id
 _symmetry_equiv_pos_as_xyz
  1  'x, y, z'
loop_
 _atom_site_type_symbol
 _atom_site_label
 _atom_site_symmetry_multiplicity
 _atom_site_fract_x
 _atom_site_fract_y
 _atom_site_fract_z
 _atom_site_occupancy
  C  1  1  0.01340900  0.01469550  0.65311350  1
  C  3  1  0.97691850  0.98347150  0.56842000  1
  C  5  1  0.94566750  0.94424425  0.65173600  1
  C  7  1  0.01456000  0.94960775  0.42696800  1
  C  9  1  0.97765650  0.98314850  0.51062700  1
  C  11  1  0.94075050  0.01346650  0.42603200  1
  C  13  1  0.01201100  0.59237175  0.07591500  1
  C  15  1  0.97681750  0.50787200  0.04301800  1
  C  17  1  0.94360100  0.59155275  0.00613800  1
  C  19  1  0.94377050  0.36546825  0.07518400  1
  C  21  1  0.97827900  0.45009775  0.04253600  1
  C  23  1  0.01660800  0.36651825  0.01016800  1
  C  25  1  0.59148500  0.01538375  0.07144900  1
  C  27  1  0.50791750  0.97631475  0.04142600  1
  C  29  1  0.59198550  0.94616100  0.00252900  1
  C  31  1  0.36645400  0.00871400  0.00380200  1
  C  33  1  0.45021700  0.97663025  0.04155000  1
  C  35  1  0.36611300  0.93950825  0.07272900  1
  C  37  1  0.82489800  0.75314750  0.88542850  1
  C  38  1  0.84692650  0.77533200  0.83667350  1
  C  39  1  0.82595700  0.82306825  0.81166650  1
  C  40  1  0.77924200  0.84731050  0.83564750  1
  C  41  1  0.75458450  0.82632675  0.88388250  1
  C  42  1  0.77817400  0.77904950  0.90801150  1
  C  43  1  0.85516050  0.84906450  0.76774850  1
  C  44  1  0.91272900  0.85444500  0.77082200  1
  C  45  1  0.94224450  0.88298650  0.73070450  1
  C  46  1  0.91571850  0.90746300  0.68541000  1
  C  47  1  0.85844500  0.90104350  0.68110400  1
  C  48  1  0.82870250  0.87276000  0.72188600  1
  C  49  1  0.85337600  0.70976800  0.91313650  1
  C  50  1  0.91103000  0.71197300  0.91815050  1
  C  51  1  0.94027800  0.67109125  0.94581600  1
  C  52  1  0.91341600  0.62593600  0.97015900  1
  C  53  1  0.85593400  0.62282400  0.96469850  1
  C  54  1  0.82645350  0.66427600  0.93700250  1
  C  55  1  0.71075700  0.85555675  0.91015550  1
  C  56  1  0.66450950  0.82902475  0.93309300  1
  C  57  1  0.62301300  0.85867125  0.96051550  1
  C  58  1  0.62679200  0.91600725  0.96676850  1
  C  59  1  0.67246350  0.94256100  0.94294500  1
  C  60  1  0.71337000  0.91313425  0.91539300  1
  C  76  1  0.13442850  0.20378350  0.88958950  1
  C  77  1  0.11019900  0.18059900  0.84212800  1
  C  78  1  0.13246600  0.13382625  0.81603600  1
  C  79  1  0.18110700  0.11143025  0.83808000  1
  C  80  1  0.20617600  0.13187475  0.88598800  1
  C  81  1  0.18247200  0.17859875  0.91049400  1
  C  82  1  0.10461500  0.10543125  0.77268950  1
  C  83  1  0.08156400  0.13219925  0.72669650  1
  C  84  1  0.05432100  0.10259275  0.68501450  1
  C  85  1  0.04839600  0.04515750  0.68838950  1
  C  86  1  0.07189250  0.01850625  0.73413650  1
  C  87  1  0.09908700  0.04785025  0.77524250  1
  C  88  1  0.10843100  0.24770775  0.91903800  1
  C  89  1  0.08572650  0.29420425  0.89271900  1
  C  90  1  0.05865700  0.33583275  0.92254250  1
  C  91  1  0.05260450  0.33203775  0.97990900  1
  C  92  1  0.07590400  0.28599225  0.00623900  1
  C  93  1  0.10315400  0.24497600  0.97662450  1
  C  94  1  0.24981700  0.10198875  0.91171600  1
  C  95  1  0.29633950  0.12760000  0.93503500  1
  C  96  1  0.33718650  0.09700975  0.96236850  1
  C  97  1  0.33225900  0.03971875  0.96829950  1
  C  98  1  0.28621000  0.01408925  0.94429100  1
  C  99  1  0.24600050  0.04443925  0.91677350  1
  C  115  1  0.82292250  0.20575800  0.19495000  1
  C  116  1  0.84532500  0.18002350  0.24175200  1
  C  117  1  0.82100700  0.13275775  0.26504500  1
  C  118  1  0.77304100  0.11159675  0.24013500  1
  C  119  1  0.74938750  0.13600675  0.19338400  1
  C  120  1  0.77430150  0.18381725  0.17260500  1
  C  121  1  0.84737850  0.10331400  0.30838600  1
  C  122  1  0.86846450  0.12958150  0.35557900  1
  C  123  1  0.89622850  0.09987700  0.39670000  1
  C  124  1  0.90466750  0.04296425  0.39135200  1
  C  125  1  0.88295600  0.01665500  0.34456900  1
  C  126  1  0.85484450  0.04610450  0.30410000  1
  C  127  1  0.85117300  0.24823750  0.16613400  1
  C  128  1  0.87266450  0.29522125  0.19233500  1
  C  129  1  0.90044700  0.33615975  0.16235200  1
  C  130  1  0.90843400  0.33070900  0.10535800  1
  C  131  1  0.88677550  0.28382875  0.07926300  1
  C  132  1  0.85879450  0.24354750  0.10895200  1
  C  133  1  0.70625100  0.10979850  0.16358600  1
  C  134  1  0.71078150  0.10387675  0.10619800  1
  C  135  1  0.67115300  0.07545800  0.07605200  1
  C  136  1  0.62517950  0.05154275  0.10187300  1
  C  137  1  0.61951700  0.05842875  0.15895900  1
  C  138  1  0.65975350  0.08668000  0.18935500  1
  C  154  1  0.13103000  0.75356300  0.19671100  1
  C  155  1  0.10839700  0.78003875  0.24305800  1
  C  156  1  0.13281500  0.82738600  0.26622500  1
  C  157  1  0.18122400  0.84786150  0.24146750  1
  C  158  1  0.20520500  0.82284025  0.19518700  1
  C  159  1  0.18009300  0.77498850  0.17474100  1
  C  160  1  0.10657250  0.85736200  0.30951200  1
  C  161  1  0.08426950  0.83159350  0.35647500  1
  C  162  1  0.05708000  0.86191025  0.39762700  1
  C  163  1  0.05047600  0.91912725  0.39273600  1
  C  164  1  0.07329450  0.94491200  0.34616600  1
  C  165  1  0.10077500  0.91482650  0.30566000  1
  C  166  1  0.10300550  0.71075025  0.16788600  1
  C  167  1  0.08024250  0.66435925  0.19415300  1
  C  168  1  0.05306150  0.62302650  0.16404800  1
  C  169  1  0.04685100  0.62736275  0.10672000  1
  C  170  1  0.06999950  0.67354925  0.08056400  1
  C  171  1  0.09723600  0.71424925  0.11038800  1
  C  172  1  0.24900050  0.84822625  0.16544500  1
  C  173  1  0.24529600  0.85319875  0.10789000  1
  C  174  1  0.28571200  0.88044875  0.07765300  1
  C  175  1  0.33175900  0.90417775  0.10349900  1
  C  176  1  0.33655250  0.89835275  0.16079800  1
  C  177  1  0.29551900  0.87125950  0.19126600  1
  C  1537  1  0.60453900  0.64676350  0.24430150  1
  C  1539  1  0.56804850  0.61553950  0.15960800  1
  C  1541  1  0.53679750  0.57631225  0.24292400  1
  C  1543  1  0.60569000  0.58167575  0.01815600  1
  C  1545  1  0.56878650  0.61521650  0.10181500  1
  C  1547  1  0.53188050  0.64553450  0.01722000  1
  C  1549  1  0.60314100  0.22443975  0.66710300  1
  C  1551  1  0.56794750  0.13994000  0.63420600  1
  C  1553  1  0.53473100  0.22362075  0.59732600  1
  C  1555  1  0.53490050  0.99753669  0.66637200  1
  C  1557  1  0.56940900  0.08216575  0.63372400  1
  C  1559  1  0.60773800  0.99858669  0.60135600  1
  C  1561  1  0.18261500  0.64745175  0.66263700  1
  C  1563  1  0.09904750  0.60838275  0.63261400  1
  C  1565  1  0.18311550  0.57822900  0.59371700  1
  C  1567  1  0.95758400  0.64078200  0.59499000  1
  C  1569  1  0.04134700  0.60869825  0.63273800  1
  C  1571  1  0.95724300  0.57157625  0.66391700  1
  C  1573  1  0.41602800  0.38521550  0.47661650  1
  C  1574  1  0.43805650  0.40740000  0.42786150  1
  C  1575  1  0.41708700  0.45513625  0.40285450  1
  C  1576  1  0.37037200  0.47937850  0.42683550  1
  C  1577  1  0.34571450  0.45839475  0.47507050  1
  C  1578  1  0.36930400  0.41111750  0.49919950  1
  C  1579  1  0.44629050  0.48113250  0.35893650  1
  C  1580  1  0.50385900  0.48651300  0.36201000  1
  C  1581  1  0.53337450  0.51505450  0.32189250  1
  C  1582  1  0.50684850  0.53953100  0.27659800  1
  C  1583  1  0.44957500  0.53311150  0.27229200  1
  C  1584  1  0.41983250  0.50482800  0.31307400  1
  C  1585  1  0.44450600  0.34183600  0.50432450  1
  C  1586  1  0.50216000  0.34404100  0.50933850  1
  C  1587  1  0.53140800  0.30315925  0.53700400  1
  C  1588  1  0.50454600  0.25800400  0.56134700  1
  C  1589  1  0.44706400  0.25489200  0.55588650  1
  C  1590  1  0.41758350  0.29634400  0.52819050  1
  C  1591  1  0.30188700  0.48762475  0.50134350  1
  C  1592  1  0.25563950  0.46109275  0.52428100  1
  C  1593  1  0.21414300  0.49073925  0.55170350  1
  C  1594  1  0.21792200  0.54807525  0.55795650  1
  C  1595  1  0.26359350  0.57462900  0.53413300  1
  C  1596  1  0.30450000  0.54520225  0.50658100  1
  C  1612  1  0.72555850  0.83585190  0.48077750  1
  C  1613  1  0.70132900  0.81266740  0.43331600  1
  C  1614  1  0.72359600  0.76589425  0.40722400  1
  C  1615  1  0.77223700  0.74349825  0.42926800  1
  C  1616  1  0.79730600  0.76394275  0.47717600  1
  C  1617  1  0.77360200  0.81066715  0.50168200  1
  C  1618  1  0.69574500  0.73749925  0.36387750  1
  C  1619  1  0.67269400  0.76426725  0.31788450  1
  C  1620  1  0.64545100  0.73466075  0.27620250  1
  C  1621  1  0.63952600  0.67722550  0.27957750  1
  C  1622  1  0.66302250  0.65057425  0.32532450  1
  C  1623  1  0.69021700  0.67991825  0.36643050  1
  C  1624  1  0.69956100  0.87977615  0.51022600  1
  C  1625  1  0.67685650  0.92627265  0.48390700  1
  C  1626  1  0.64978700  0.96790115  0.51373050  1
  C  1627  1  0.64373450  0.96410615  0.57109700  1
  C  1628  1  0.66703400  0.91806065  0.59742700  1
  C  1629  1  0.69428400  0.87704440  0.56781250  1
  C  1630  1  0.84094700  0.73405675  0.50290400  1
  C  1631  1  0.88746950  0.75966800  0.52622300  1
  C  1632  1  0.92831650  0.72907775  0.55355650  1
  C  1633  1  0.92338900  0.67178675  0.55948750  1
  C  1634  1  0.87734000  0.64615725  0.53547900  1
  C  1635  1  0.83713050  0.67650725  0.50796150  1
  C  1651  1  0.41405250  0.83782640  0.78613800  1
  C  1652  1  0.43645500  0.81209190  0.83293980  1
  C  1653  1  0.41213700  0.76482575  0.85623280  1
  C  1654  1  0.36417100  0.74366475  0.83132280  1
  C  1655  1  0.34051750  0.76807475  0.78457200  1
  C  1656  1  0.36543150  0.81588565  0.76379300  1
  C  1657  1  0.43850850  0.73538200  0.89957380  1
  C  1658  1  0.45959450  0.76164950  0.94676680  1
  C  1659  1  0.48735850  0.73194500  0.98788782  1
  C  1660  1  0.49579750  0.67503225  0.98253982  1
  C  1661  1  0.47408600  0.64872300  0.93575680  1
  C  1662  1  0.44597450  0.67817250  0.89528780  1
  C  1663  1  0.44230300  0.88030590  0.75732200  1
  C  1664  1  0.46379450  0.92728965  0.78352300  1
  C  1665  1  0.49157700  0.96822815  0.75354000  1
  C  1666  1  0.49956400  0.96277740  0.69654600  1
  C  1667  1  0.47790550  0.91589715  0.67045100  1
  C  1668  1  0.44992450  0.87561590  0.70014000  1
  C  1669  1  0.29738100  0.74186650  0.75477400  1
  C  1670  1  0.30191150  0.73594475  0.69738600  1
  C  1671  1  0.26228300  0.70752600  0.66724000  1
  C  1672  1  0.21630950  0.68361075  0.69306100  1
  C  1673  1  0.21064700  0.69049675  0.75014700  1
  C  1674  1  0.25088350  0.71874800  0.78054300  1
  C  1690  1  0.72216000  0.38563100  0.78789900  1
  C  1691  1  0.69952700  0.41210675  0.83424580  1
  C  1692  1  0.72394500  0.45945400  0.85741280  1
  C  1693  1  0.77235400  0.47992950  0.83265530  1
  C  1694  1  0.79633500  0.45490825  0.78637500  1
  C  1695  1  0.77122300  0.40705650  0.76592900  1
  C  1696  1  0.69770250  0.48943000  0.90069980  1
  C  1697  1  0.67539950  0.46366150  0.94766280  1
  C  1698  1  0.64821000  0.49397825  0.98881482  1
  C  1699  1  0.64160600  0.55119525  0.98392382  1
  C  1700  1  0.66442450  0.57698000  0.93735380  1
  C  1701  1  0.69190500  0.54689450  0.89684780  1
  C  1702  1  0.69413550  0.34281825  0.75907400  1
  C  1703  1  0.67137250  0.29642725  0.78534100  1
  C  1704  1  0.64419150  0.25509450  0.75523600  1
  C  1705  1  0.63798100  0.25943075  0.69790800  1
  C  1706  1  0.66112950  0.30561725  0.67175200  1
  C  1707  1  0.68836600  0.34631725  0.70157600  1
  C  1708  1  0.84013050  0.48029425  0.75663300  1
  C  1709  1  0.83642600  0.48526675  0.69907800  1
  C  1710  1  0.87684200  0.51251675  0.66884100  1
  C  1711  1  0.92288900  0.53624575  0.69468700  1
  C  1712  1  0.92768250  0.53042075  0.75198600  1
  C  1713  1  0.88664900  0.50332750  0.78245400  1
  H  61  1  0.98170050  0.67570250  0.94946300  1
  H  62  1  0.93253400  0.74464400  0.90337450  1
  H  63  1  0.83482500  0.59193875  0.98332900  1
  H  64  1  0.78484800  0.66110425  0.93465850  1
  H  65  1  0.66089850  0.78747875  0.93047850  1
  H  66  1  0.59166650  0.83770675  0.97853900  1
  H  67  1  0.74654650  0.93433250  0.90134000  1
  H  68  1  0.67753050  0.98387950  0.94701950  1
  H  69  1  0.78714950  0.87028025  0.71816250  1
  H  70  1  0.83756550  0.91977200  0.65011700  1
  H  71  1  0.98350500  0.88730125  0.73607500  1
  H  72  1  0.93379800  0.84006125  0.80394100  1
  H  73  1  0.88024200  0.75678625  0.81937250  1
  H  74  1  0.76338600  0.76544300  0.94471900  1
  H  75  1  0.76410000  0.88241675  0.81865750  1
  H  100  1  0.04071300  0.36729825  0.90169800  1
  H  101  1  0.08824600  0.29791125  0.85117550  1
  H  102  1  0.07162550  0.28079500  0.04753200  1
  H  103  1  0.11698800  0.21163375  0.99771000  1
  H  104  1  0.30062500  0.16910350  0.93275800  1
  H  105  1  0.36879650  0.11729175  0.98069900  1
  H  106  1  0.21247600  0.02393150  0.90251850  1
  H  107  1  0.28035000  0.97285975  0.94820000  1
  H  108  1  0.11334350  0.02645525  0.80821750  1
  H  109  1  0.06811900  0.97712600  0.73896050  1
  H  110  1  0.03649000  0.12359425  0.65359150  1
  H  111  1  0.08439000  0.17374275  0.72321350  1
  H  112  1  0.07357100  0.19563975  0.82858050  1
  H  113  1  0.19956300  0.19338150  0.94569750  1
  H  114  1  0.19820400  0.07811450  0.81934400  1
  H  139  1  0.91710450  0.36854350  0.18284200  1
  H  140  1  0.86825600  0.29998050  0.23361900  1
  H  141  1  0.89228900  0.27775800  0.03823500  1
  H  142  1  0.84550100  0.20970175  0.08830100  1
  H  143  1  0.74444550  0.11795400  0.08577600  1
  H  144  1  0.67736950  0.07088850  0.03494200  1
  H  145  1  0.65511250  0.08967475  0.23077900  1
  H  146  1  0.58782100  0.04026425  0.17927300  1
  H  147  1  0.84205450  0.02540100  0.27010200  1
  H  148  1  0.88892000  0.97569100  0.33850800  1
  H  149  1  0.91288600  0.12060650  0.42893400  1
  H  150  1  0.86423050  0.17090325  0.36015300  1
  H  151  1  0.88200300  0.19359400  0.25668500  1
  H  152  1  0.75752050  0.20217050  0.13890200  1
  H  153  1  0.75630450  0.07618650  0.25488900  1
  H  178  1  0.03540400  0.59123800  0.18464600  1
  H  179  1  0.08330950  0.66030150  0.23563000  1
  H  180  1  0.06605750  0.67891000  0.03926500  1
  H  181  1  0.11145350  0.74754225  0.08945500  1
  H  182  1  0.21172200  0.83915875  0.08730900  1
  H  183  1  0.28002250  0.88439050  0.03639900  1
  H  184  1  0.29962750  0.86900750  0.23279000  1
  H  185  1  0.36820050  0.91656225  0.18112800  1
  H  186  1  0.11436800  0.93538200  0.27188700  1
  H  187  1  0.06850800  0.98604975  0.34023400  1
  H  188  1  0.03948250  0.84148900  0.42956400  1
  H  189  1  0.08722300  0.79014550  0.36089000  1
  H  190  1  0.07152800  0.76682450  0.25782300  1
  H  191  1  0.19729900  0.75601500  0.14160400  1
  H  192  1  0.19827200  0.88315675  0.25610300  1
  H  1597  1  0.57283050  0.30777050  0.54065100  1
  H  1598  1  0.52366400  0.37671200  0.49456250  1
  H  1599  1  0.42595500  0.22400675  0.57451700  1
  H  1600  1  0.37597800  0.29317225  0.52584650  1
  H  1601  1  0.25202850  0.41954675  0.52166650  1
  H  1602  1  0.18279650  0.46977475  0.56972700  1
  H  1603  1  0.33767650  0.56640050  0.49252800  1
  H  1604  1  0.26866050  0.61594750  0.53820750  1
  H  1605  1  0.37827950  0.50234825  0.30935050  1
  H  1606  1  0.42869550  0.55184000  0.24130500  1
  H  1607  1  0.57463500  0.51936925  0.32726300  1
  H  1608  1  0.52492800  0.47212925  0.39512900  1
  H  1609  1  0.47137200  0.38885425  0.41056050  1
  H  1610  1  0.35451600  0.39751100  0.53590700  1
  H  1611  1  0.35523000  0.51448475  0.40984550  1
  H  1636  1  0.63184300  0.99936669  0.49288600  1
  H  1637  1  0.67937600  0.92997965  0.44236350  1
  H  1638  1  0.66275550  0.91286340  0.63872000  1
  H  1639  1  0.70811800  0.84370215  0.58889800  1
  H  1640  1  0.89175500  0.80117190  0.52394600  1
  H  1641  1  0.95992650  0.74935975  0.57188700  1
  H  1642  1  0.80360600  0.65599950  0.49370650  1
  H  1643  1  0.87148000  0.60492775  0.53938800  1
  H  1644  1  0.70447350  0.65852325  0.39940550  1
  H  1645  1  0.65924900  0.60919400  0.33014850  1
  H  1646  1  0.62762000  0.75566225  0.24477950  1
  H  1647  1  0.67552000  0.80581115  0.31440150  1
  H  1648  1  0.66470100  0.82770815  0.41976850  1
  H  1649  1  0.79069300  0.82544990  0.53688550  1
  H  1650  1  0.78933400  0.71018250  0.41053200  1
  H  1675  1  0.50823450  0.00061150  0.77403000  1
  H  1676  1  0.45938600  0.93204890  0.82480680  1
  H  1677  1  0.48341900  0.90982640  0.62942300  1
  H  1678  1  0.43663100  0.84177015  0.67948900  1
  H  1679  1  0.33557550  0.75002200  0.67696400  1
  H  1680  1  0.26849950  0.70295650  0.62613000  1
  H  1681  1  0.24624250  0.72174275  0.82196680  1
  H  1682  1  0.17895100  0.67233225  0.77046100  1
  H  1683  1  0.43318450  0.65746900  0.86128980  1
  H  1684  1  0.48005000  0.60775900  0.92969580  1
  H  1685  1  0.50401600  0.75267450  0.02012200  1
  H  1686  1  0.45536050  0.80297165  0.95134080  1
  H  1687  1  0.47313300  0.82566240  0.84787280  1
  H  1688  1  0.34865050  0.83423890  0.73009000  1
  H  1689  1  0.34743450  0.70825450  0.84607680  1
  H  1714  1  0.62653400  0.22330600  0.77583400  1
  H  1715  1  0.67443950  0.29236950  0.82681780  1
  H  1716  1  0.65718750  0.31097800  0.63045300  1
  H  1717  1  0.70258350  0.37961025  0.68064300  1
  H  1718  1  0.80285200  0.47122675  0.67849700  1
  H  1719  1  0.87115250  0.51645850  0.62758700  1
  H  1720  1  0.89075750  0.50107550  0.82397780  1
  H  1721  1  0.95933050  0.54863025  0.77231600  1
  H  1722  1  0.70549800  0.56745000  0.86307480  1
  H  1723  1  0.65963800  0.61811775  0.93142180  1
  H  1724  1  0.63061250  0.47355700  0.02075200  1
  H  1725  1  0.67835300  0.42221350  0.95207780  1
  H  1726  1  0.66265800  0.39889250  0.84901080  1
  H  1727  1  0.78842900  0.38808300  0.73279200  1
  H  1728  1  0.78940200  0.51522475  0.84729080  1
  N  2  1  0.01138750  0.01683825  0.59735200  1
  N  4  1  0.94431500  0.94735175  0.59607650  1
  N  6  1  0.98033300  0.97817000  0.67813750  1
  N  8  1  0.01357650  0.95035425  0.48278950  1
  N  10  1  0.94157500  0.01465775  0.48177800  1
  N  12  1  0.97765600  0.98114550  0.40057200  1
  N  14  1  0.01096100  0.53660150  0.07683000  1
  N  16  1  0.94328700  0.53577225  0.00787400  1
  N  18  1  0.97818550  0.61770050  0.04033800  1
  N  20  1  0.94339200  0.42118250  0.07525800  1
  N  22  1  0.01446550  0.42235825  0.00987600  1
  N  24  1  0.98064850  0.34012575  0.04276800  1
  N  26  1  0.53592850  0.01207525  0.07394300  1
  N  28  1  0.53628900  0.94361075  0.00583500  1
  N  30  1  0.61747000  0.98220225  0.03573100  1
  N  32  1  0.42217650  0.01006975  0.00644800  1
  N  34  1  0.42179650  0.94162350  0.07460200  1
  N  36  1  0.34047250  0.97322650  0.03723800  1
  N  1538  1  0.60251750  0.64890625  0.18854000  1
  N  1540  1  0.53544500  0.57941975  0.18726450  1
  N  1542  1  0.57146300  0.61023800  0.26932550  1
  N  1544  1  0.60470650  0.58242225  0.07397750  1
  N  1546  1  0.53270500  0.64672575  0.07296600  1
  N  1548  1  0.56878600  0.61321350  0.99175982  1
  N  1550  1  0.60209100  0.16866950  0.66801800  1
  N  1552  1  0.53441700  0.16784025  0.59906200  1
  N  1554  1  0.56931550  0.24976850  0.63152600  1
  N  1556  1  0.53452200  0.05325050  0.66644600  1
  N  1558  1  0.60559550  0.05442625  0.60106400  1
  N  1560  1  0.57177850  0.97219415  0.63395600  1
  N  1562  1  0.12705850  0.64414325  0.66513100  1
  N  1564  1  0.12741900  0.57567875  0.59702300  1
  N  1566  1  0.20860000  0.61427025  0.62691900  1
  N  1568  1  0.01330650  0.64213775  0.59763600  1
  N  1570  1  0.01292650  0.57369150  0.66579000  1
  N  1572  1  0.93160250  0.60529450  0.62842600  1
