# generated using pymatgen
data_MnH6(C3O)4
_symmetry_space_group_name_H-M   'P 1'
_cell_length_a   11.87310000
_cell_length_b   13.23340000
_cell_length_c   18.47430000
_cell_angle_alpha   90.00000000
_cell_angle_beta   90.00000000
_cell_angle_gamma   109.51100000
_symmetry_Int_Tables_number   1
_chemical_formula_structural   MnH6(C3O)4
_chemical_formula_sum   'Mn6 H36 C72 O24'
_cell_volume   2736.02822984
_cell_formula_units_Z   6
loop_
 _symmetry_equiv_pos_site_id
 _symmetry_equiv_pos_as_xyz
  1  'x, y, z'
loop_
 _atom_site_type_symbol
 _atom_site_label
 _atom_site_symmetry_multiplicity
 _atom_site_fract_x
 _atom_site_fract_y
 _atom_site_fract_z
 _atom_site_occupancy
  Mn  Mn1  1  0.15165000  0.78744000  0.97968000  1.0
  Mn  Mn2  1  0.34835000  0.71256000  0.47968000  1.0
  Mn  Mn3  1  0.84835000  0.21256000  0.02032000  1.0
  Mn  Mn4  1  0.65165000  0.28744000  0.52032000  1.0
  Mn  Mn5  1  0.00000000  0.50000000  0.00000000  1.0
  Mn  Mn6  1  0.50000000  0.00000000  0.50000000  1.0
  H  H1  1  0.06950000  0.13300000  0.85590000  1.0
  H  H2  1  0.24740000  0.44800000  0.85830000  1.0
  H  H3  1  0.38020000  0.42790000  0.77490000  1.0
  H  H4  1  0.44570000  0.31060000  0.69180000  1.0
  H  H5  1  0.27680000  0.99460000  0.69450000  1.0
  H  H6  1  0.14670000  0.01320000  0.77960000  1.0
  H  H7  1  0.59380000  0.58480000  0.87550000  1.0
  H  H8  1  0.45040000  0.66440000  0.87000000  1.0
  H  H9  1  0.30530000  0.52300000  0.05550000  1.0
  H  H10  1  0.43050000  0.36700000  0.35590000  1.0
  H  H11  1  0.25260000  0.05200000  0.35830000  1.0
  H  H12  1  0.11980000  0.07210000  0.27490000  1.0
  H  H13  1  0.05430000  0.18940000  0.19180000  1.0
  H  H14  1  0.22320000  0.50540000  0.19450000  1.0
  H  H15  1  0.35330000  0.48680000  0.27960000  1.0
  H  H16  1  0.90620000  0.91520000  0.37550000  1.0
  H  H17  1  0.04960000  0.83560000  0.37000000  1.0
  H  H18  1  0.19470000  0.97700000  0.55550000  1.0
  H  H19  1  0.93050000  0.86700000  0.14410000  1.0
  H  H20  1  0.75260000  0.55200000  0.14170000  1.0
  H  H21  1  0.61980000  0.57210000  0.22510000  1.0
  H  H22  1  0.55430000  0.68940000  0.30820000  1.0
  H  H23  1  0.72320000  0.00540000  0.30550000  1.0
  H  H24  1  0.85330000  0.98680000  0.22040000  1.0
  H  H25  1  0.40620000  0.41520000  0.12450000  1.0
  H  H26  1  0.54960000  0.33560000  0.13000000  1.0
  H  H27  1  0.69470000  0.47700000  0.94450000  1.0
  H  H28  1  0.56950000  0.63300000  0.64410000  1.0
  H  H29  1  0.74740000  0.94800000  0.64170000  1.0
  H  H30  1  0.88020000  0.92790000  0.72510000  1.0
  H  H31  1  0.94570000  0.81060000  0.80820000  1.0
  H  H32  1  0.77680000  0.49460000  0.80550000  1.0
  H  H33  1  0.64670000  0.51320000  0.72040000  1.0
  H  H34  1  0.09380000  0.08480000  0.62450000  1.0
  H  H35  1  0.95040000  0.16440000  0.63000000  1.0
  H  H36  1  0.80530000  0.02300000  0.44450000  1.0
  C  C1  1  0.13210000  0.19170000  0.83927000  1.0
  C  C2  1  0.14420000  0.29160000  0.86438000  1.0
  C  C3  1  0.23860000  0.38020000  0.84025000  1.0
  C  C4  1  0.31780000  0.36820000  0.79056000  1.0
  C  C5  1  0.38460000  0.25140000  0.70933000  1.0
  C  C6  1  0.37280000  0.15270000  0.68313000  1.0
  C  C7  1  0.28320000  0.06260000  0.71104000  1.0
  C  C8  1  0.20570000  0.07370000  0.76189000  1.0
  C  C9  1  0.21350000  0.17600000  0.78821000  1.0
  C  C10  1  0.30620000  0.26640000  0.76264000  1.0
  C  C11  1  0.05720000  0.30860000  0.91844000  1.0
  C  C12  1  0.45470000  0.14240000  0.62308000  1.0
  C  C13  1  0.53820000  0.57390000  0.91268000  1.0
  C  C14  1  0.45170000  0.62010000  0.90890000  1.0
  C  C15  1  0.36370000  0.60170000  0.96336000  1.0
  C  C16  1  0.36490000  0.53690000  0.02053000  1.0
  C  C17  1  0.45590000  0.49050000  0.02732000  1.0
  C  C18  1  0.27650000  0.66160000  0.96118000  1.0
  C  C19  1  0.36790000  0.30830000  0.33927000  1.0
  C  C20  1  0.35580000  0.20840000  0.36438000  1.0
  C  C21  1  0.26140000  0.11980000  0.34025000  1.0
  C  C22  1  0.18220000  0.13180000  0.29056000  1.0
  C  C23  1  0.11540000  0.24860000  0.20933000  1.0
  C  C24  1  0.12720000  0.34730000  0.18313000  1.0
  C  C25  1  0.21680000  0.43740000  0.21104000  1.0
  C  C26  1  0.29430000  0.42630000  0.26189000  1.0
  C  C27  1  0.28650000  0.32400000  0.28821000  1.0
  C  C28  1  0.19380000  0.23360000  0.26264000  1.0
  C  C29  1  0.44280000  0.19140000  0.41844000  1.0
  C  C30  1  0.04530000  0.35760000  0.12308000  1.0
  C  C31  1  0.96180000  0.92610000  0.41268000  1.0
  C  C32  1  0.04830000  0.87990000  0.40890000  1.0
  C  C33  1  0.13630000  0.89830000  0.46336000  1.0
  C  C34  1  0.13510000  0.96310000  0.52053000  1.0
  C  C35  1  0.04410000  0.00950000  0.52732000  1.0
  C  C36  1  0.22350000  0.83840000  0.46118000  1.0
  C  C37  1  0.86790000  0.80830000  0.16073000  1.0
  C  C38  1  0.85580000  0.70840000  0.13562000  1.0
  C  C39  1  0.76140000  0.61980000  0.15975000  1.0
  C  C40  1  0.68220000  0.63180000  0.20944000  1.0
  C  C41  1  0.61540000  0.74860000  0.29067000  1.0
  C  C42  1  0.62720000  0.84730000  0.31687000  1.0
  C  C43  1  0.71680000  0.93740000  0.28896000  1.0
  C  C44  1  0.79430000  0.92630000  0.23811000  1.0
  C  C45  1  0.78650000  0.82400000  0.21179000  1.0
  C  C46  1  0.69380000  0.73360000  0.23736000  1.0
  C  C47  1  0.94280000  0.69140000  0.08156000  1.0
  C  C48  1  0.54530000  0.85760000  0.37692000  1.0
  C  C49  1  0.46180000  0.42610000  0.08732000  1.0
  C  C50  1  0.54830000  0.37990000  0.09110000  1.0
  C  C51  1  0.63630000  0.39830000  0.03664000  1.0
  C  C52  1  0.63510000  0.46310000  0.97947000  1.0
  C  C53  1  0.54410000  0.50950000  0.97268000  1.0
  C  C54  1  0.72350000  0.33840000  0.03882000  1.0
  C  C55  1  0.63210000  0.69170000  0.66073000  1.0
  C  C56  1  0.64420000  0.79160000  0.63562000  1.0
  C  C57  1  0.73860000  0.88020000  0.65975000  1.0
  C  C58  1  0.81780000  0.86820000  0.70944000  1.0
  C  C59  1  0.88460000  0.75140000  0.79067000  1.0
  C  C60  1  0.87280000  0.65270000  0.81687000  1.0
  C  C61  1  0.78320000  0.56260000  0.78896000  1.0
  C  C62  1  0.70570000  0.57370000  0.73811000  1.0
  C  C63  1  0.71350000  0.67600000  0.71179000  1.0
  C  C64  1  0.80620000  0.76640000  0.73736000  1.0
  C  C65  1  0.55720000  0.80860000  0.58156000  1.0
  C  C66  1  0.95470000  0.64240000  0.87692000  1.0
  C  C67  1  0.03820000  0.07390000  0.58732000  1.0
  C  C68  1  0.95170000  0.12010000  0.59110000  1.0
  C  C69  1  0.86370000  0.10170000  0.53664000  1.0
  C  C70  1  0.86490000  0.03690000  0.47947000  1.0
  C  C71  1  0.95590000  0.99050000  0.47268000  1.0
  C  C72  1  0.77650000  0.16160000  0.53882000  1.0
  O  O1  1  0.07017000  0.40203000  0.93552000  1.0
  O  O2  1  0.97789000  0.22671000  0.94122000  1.0
  O  O3  1  0.43749000  0.05191000  0.59772000  1.0
  O  O4  1  0.53265000  0.22675000  0.60455000  1.0
  O  O5  1  0.18233000  0.62877000  0.99903000  1.0
  O  O6  1  0.30281000  0.74639000  0.92602000  1.0
  O  O7  1  0.42983000  0.09797000  0.43552000  1.0
  O  O8  1  0.52211000  0.27329000  0.44122000  1.0
  O  O9  1  0.06251000  0.44809000  0.09772000  1.0
  O  O10  1  0.96735000  0.27325000  0.10455000  1.0
  O  O11  1  0.31767000  0.87123000  0.49903000  1.0
  O  O12  1  0.19719000  0.75361000  0.42602000  1.0
  O  O13  1  0.92983000  0.59797000  0.06448000  1.0
  O  O14  1  0.02211000  0.77329000  0.05878000  1.0
  O  O15  1  0.56251000  0.94809000  0.40228000  1.0
  O  O16  1  0.46735000  0.77325000  0.39545000  1.0
  O  O17  1  0.81767000  0.37123000  0.00097000  1.0
  O  O18  1  0.69719000  0.25361000  0.07398000  1.0
  O  O19  1  0.57017000  0.90203000  0.56448000  1.0
  O  O20  1  0.47789000  0.72671000  0.55878000  1.0
  O  O21  1  0.93749000  0.55191000  0.90228000  1.0
  O  O22  1  0.03265000  0.72675000  0.89545000  1.0
  O  O23  1  0.68233000  0.12877000  0.50097000  1.0
  O  O24  1  0.80281000  0.24639000  0.57398000  1.0
