# generated using pymatgen
data_CoH12C16(NO2)2
_symmetry_space_group_name_H-M   'P 1'
_cell_length_a   8.24114000
_cell_length_b   10.56881000
_cell_length_c   11.01327000
_cell_angle_alpha   89.99841000
_cell_angle_beta   86.72764000
_cell_angle_gamma   89.98072000
_symmetry_Int_Tables_number   1
_chemical_formula_structural   CoH12C16(NO2)2
_chemical_formula_sum   'Co2 H24 C32 N4 O8'
_cell_volume   957.68114298
_cell_formula_units_Z   2
loop_
 _symmetry_equiv_pos_site_id
 _symmetry_equiv_pos_as_xyz
  1  'x, y, z'
loop_
 _atom_site_type_symbol
 _atom_site_label
 _atom_site_symmetry_multiplicity
 _atom_site_fract_x
 _atom_site_fract_y
 _atom_site_fract_z
 _atom_site_occupancy
  Co  Co0  1  0.00000000  0.50001000  0.99998000  1
  Co  Co1  1  0.49999000  0.00001000  0.49997000  1
  H  H2  1  0.69988000  0.38564000  0.90079000  1
  H  H3  1  0.44173000  0.45550000  0.81224000  1
  H  H4  1  0.63651000  0.83442000  0.80080000  1
  H  H5  1  0.88387000  0.74875000  0.89307000  1
  H  H6  1  0.24863000  0.82298000  0.62782000  1
  H  H7  1  0.10457000  0.70199000  0.75352000  1
  H  H8  1  0.79935000  0.88577000  0.59927000  1
  H  H9  1  0.05730000  0.95554000  0.68806000  1
  H  H10  1  0.86375000  0.33450000  0.69938000  1
  H  H11  1  0.61608000  0.24941000  0.60693000  1
  H  H12  1  0.25055000  0.32330000  0.87150000  1
  H  H13  1  0.39601000  0.19868000  0.74353000  1
  H  H14  1  0.30014000  0.61438000  0.09920000  1
  H  H15  1  0.55826000  0.54454000  0.18775000  1
  H  H16  1  0.36350000  0.16561000  0.19917000  1
  H  H17  1  0.11615000  0.25129000  0.10691000  1
  H  H18  1  0.75141000  0.17705000  0.37211000  1
  H  H19  1  0.89546000  0.29808000  0.24645000  1
  H  H20  1  0.20057000  0.11430000  0.40072000  1
  H  H21  1  0.94261000  0.04447000  0.31194000  1
  H  H22  1  0.13621000  0.66555000  0.30063000  1
  H  H23  1  0.38391000  0.75060000  0.39306000  1
  H  H24  1  0.74950000  0.67668000  0.12847000  1
  H  H25  1  0.60400000  0.80135000  0.25647000  1
  C  C26  1  0.67933000  0.48406000  0.87746000  1
  C  C27  1  0.53663000  0.52406000  0.82808000  1
  C  C28  1  0.64485000  0.73437000  0.82194000  1
  C  C29  1  0.78315000  0.68735000  0.87248000  1
  C  C30  1  0.51549000  0.65234000  0.79914000  1
  C  C31  1  0.36503000  0.70005000  0.74999000  1
  C  C32  1  0.36795000  0.79186000  0.65736000  1
  C  C33  1  0.20951000  0.65965000  0.79668000  1
  C  C34  1  0.81954000  0.98412000  0.62288000  1
  C  C35  1  0.96221000  0.02388000  0.67240000  1
  C  C36  1  0.85467000  0.23443000  0.67836000  1
  C  C37  1  0.71637000  0.18764000  0.62778000  1
  C  C38  1  0.98343000  0.15206000  0.70136000  1
  C  C39  1  0.13435000  0.19927000  0.75000000  1
  C  C40  1  0.13127000  0.29156000  0.84234000  1
  C  C41  1  0.28894000  0.15733000  0.70251000  1
  C  C42  1  0.32062000  0.51599000  0.12256000  1
  C  C43  1  0.46341000  0.47596000  0.17190000  1
  C  C44  1  0.35521000  0.26564000  0.17803000  1
  C  C45  1  0.21683000  0.31268000  0.12753000  1
  C  C46  1  0.48451000  0.34770000  0.20087000  1
  C  C47  1  0.63501000  0.29999000  0.25000000  1
  C  C48  1  0.63208000  0.20821000  0.34263000  1
  C  C49  1  0.79050000  0.34049000  0.20335000  1
  C  C50  1  0.18038000  0.01591000  0.37713000  1
  C  C51  1  0.03778000  0.97616000  0.32760000  1
  C  C52  1  0.14535000  0.76563000  0.32165000  1
  C  C53  1  0.28357000  0.81239000  0.37223000  1
  C  C54  1  0.01652000  0.84796000  0.29867000  1
  C  C55  1  0.86566000  0.80073000  0.24997000  1
  C  C56  1  0.86877000  0.70841000  0.15765000  1
  C  C57  1  0.71108000  0.84264000  0.29751000  1
  N  N58  1  0.80156000  0.56400000  0.90130000  1
  N  N59  1  0.69753000  0.06432000  0.59905000  1
  N  N60  1  0.19847000  0.43601000  0.09867000  1
  N  N61  1  0.30251000  0.93575000  0.40085000  1
  O  O62  1  0.49627000  0.83841000  0.60511000  1
  O  O63  1  0.18506000  0.58200000  0.88320000  1
  O  O64  1  0.00313000  0.33793000  0.89460000  1
  O  O65  1  0.31085000  0.07872000  0.61647000  1
  O  O66  1  0.50377000  0.16169000  0.39495000  1
  O  O67  1  0.81490000  0.41822000  0.11692000  1
  O  O68  1  0.99692000  0.66205000  0.10539000  1
  O  O69  1  0.68916000  0.92121000  0.38358000  1
