# generated using pymatgen
data_Ni3Mo12P8H16C20(N2O25)2
_symmetry_space_group_name_H-M   'P 1'
_cell_length_a   16.15830000
_cell_length_b   22.81920000
_cell_length_c   27.74500000
_cell_angle_alpha   90.00000000
_cell_angle_beta   90.00000000
_cell_angle_gamma   90.00000000
_symmetry_Int_Tables_number   1
_chemical_formula_structural   Ni3Mo12P8H16C20(N2O25)2
_chemical_formula_sum   'Ni12 Mo48 P32 H64 C80 N16 O200'
_cell_volume   10230.12195484
_cell_formula_units_Z   4
loop_
 _symmetry_equiv_pos_site_id
 _symmetry_equiv_pos_as_xyz
  1  'x, y, z'
loop_
 _atom_site_type_symbol
 _atom_site_label
 _atom_site_symmetry_multiplicity
 _atom_site_fract_x
 _atom_site_fract_y
 _atom_site_fract_z
 _atom_site_occupancy
  Ni  Ni1  1  0.00000000  0.50000000  0.00000000  1.0
  Ni  Ni2  1  0.50000000  0.50000000  0.50000000  1.0
  Ni  Ni3  1  0.50000000  0.00000000  0.00000000  1.0
  Ni  Ni4  1  0.00000000  0.00000000  0.50000000  1.0
  Ni  Ni5  1  0.75000000  0.34202000  0.75000000  1.0
  Ni  Ni6  1  0.25000000  0.15798000  0.25000000  1.0
  Ni  Ni7  1  0.25000000  0.65798000  0.25000000  1.0
  Ni  Ni8  1  0.75000000  0.84202000  0.75000000  1.0
  Ni  Ni9  1  0.75000000  0.33384000  0.25000000  1.0
  Ni  Ni10  1  0.25000000  0.16616000  0.75000000  1.0
  Ni  Ni11  1  0.25000000  0.66616000  0.75000000  1.0
  Ni  Ni12  1  0.75000000  0.83384000  0.25000000  1.0
  Mo  Mo1  1  0.79899000  0.43920000  0.04952000  1.0
  Mo  Mo2  1  0.10353000  0.37375000  0.93319000  1.0
  Mo  Mo3  1  0.11225000  0.36951000  0.06018000  1.0
  Mo  Mo4  1  0.96777000  0.40365000  0.88931000  1.0
  Mo  Mo5  1  0.98124000  0.39677000  0.10993000  1.0
  Mo  Mo6  1  0.79250000  0.44344000  0.95576000  1.0
  Mo  Mo7  1  0.70101000  0.43920000  0.45048000  1.0
  Mo  Mo8  1  0.39647000  0.37375000  0.56681000  1.0
  Mo  Mo9  1  0.38775000  0.36951000  0.43982000  1.0
  Mo  Mo10  1  0.53223000  0.40365000  0.61069000  1.0
  Mo  Mo11  1  0.51876000  0.39677000  0.39007000  1.0
  Mo  Mo12  1  0.70750000  0.44344000  0.54424000  1.0
  Mo  Mo13  1  0.29899000  0.06080000  0.95048000  1.0
  Mo  Mo14  1  0.60353000  0.12625000  0.06681000  1.0
  Mo  Mo15  1  0.61225000  0.13049000  0.93982000  1.0
  Mo  Mo16  1  0.46777000  0.09635000  0.11069000  1.0
  Mo  Mo17  1  0.48124000  0.10323000  0.89007000  1.0
  Mo  Mo18  1  0.29250000  0.05656000  0.04424000  1.0
  Mo  Mo19  1  0.20101000  0.06080000  0.54952000  1.0
  Mo  Mo20  1  0.89647000  0.12625000  0.43319000  1.0
  Mo  Mo21  1  0.88775000  0.13049000  0.56018000  1.0
  Mo  Mo22  1  0.03223000  0.09635000  0.38931000  1.0
  Mo  Mo23  1  0.01876000  0.10323000  0.60993000  1.0
  Mo  Mo24  1  0.20750000  0.05656000  0.45576000  1.0
  Mo  Mo25  1  0.20101000  0.56080000  0.95048000  1.0
  Mo  Mo26  1  0.89647000  0.62625000  0.06681000  1.0
  Mo  Mo27  1  0.88775000  0.63049000  0.93982000  1.0
  Mo  Mo28  1  0.03223000  0.59635000  0.11069000  1.0
  Mo  Mo29  1  0.01876000  0.60323000  0.89007000  1.0
  Mo  Mo30  1  0.20750000  0.55656000  0.04424000  1.0
  Mo  Mo31  1  0.29899000  0.56080000  0.54952000  1.0
  Mo  Mo32  1  0.60353000  0.62625000  0.43319000  1.0
  Mo  Mo33  1  0.61225000  0.63049000  0.56018000  1.0
  Mo  Mo34  1  0.46777000  0.59635000  0.38931000  1.0
  Mo  Mo35  1  0.48124000  0.60323000  0.60993000  1.0
  Mo  Mo36  1  0.29250000  0.55656000  0.45576000  1.0
  Mo  Mo37  1  0.70101000  0.93920000  0.04952000  1.0
  Mo  Mo38  1  0.39647000  0.87375000  0.93319000  1.0
  Mo  Mo39  1  0.38775000  0.86951000  0.06018000  1.0
  Mo  Mo40  1  0.53223000  0.90365000  0.88931000  1.0
  Mo  Mo41  1  0.51876000  0.89677000  0.10993000  1.0
  Mo  Mo42  1  0.70750000  0.94344000  0.95576000  1.0
  Mo  Mo43  1  0.79899000  0.93920000  0.45048000  1.0
  Mo  Mo44  1  0.10353000  0.87375000  0.56681000  1.0
  Mo  Mo45  1  0.11225000  0.86951000  0.43982000  1.0
  Mo  Mo46  1  0.96777000  0.90365000  0.61069000  1.0
  Mo  Mo47  1  0.98124000  0.89677000  0.39007000  1.0
  Mo  Mo48  1  0.79250000  0.94344000  0.54424000  1.0
  P  P1  1  0.78076000  0.34321000  0.86866000  1.0
  P  P2  1  0.79653000  0.33514000  0.13351000  1.0
  P  P3  1  0.18598000  0.26103000  0.99145000  1.0
  P  P4  1  0.93280000  0.33956000  0.99800000  1.0
  P  P5  1  0.71924000  0.34321000  0.63134000  1.0
  P  P6  1  0.70347000  0.33514000  0.36649000  1.0
  P  P7  1  0.31402000  0.26103000  0.50855000  1.0
  P  P8  1  0.56720000  0.33956000  0.50200000  1.0
  P  P9  1  0.28076000  0.15679000  0.13134000  1.0
  P  P10  1  0.29653000  0.16486000  0.86649000  1.0
  P  P11  1  0.68598000  0.23897000  0.00855000  1.0
  P  P12  1  0.43280000  0.16044000  0.00200000  1.0
  P  P13  1  0.21924000  0.15679000  0.36866000  1.0
  P  P14  1  0.20347000  0.16486000  0.63351000  1.0
  P  P15  1  0.81402000  0.23897000  0.49145000  1.0
  P  P16  1  0.06720000  0.16044000  0.49800000  1.0
  P  P17  1  0.21924000  0.65679000  0.13134000  1.0
  P  P18  1  0.20347000  0.66486000  0.86649000  1.0
  P  P19  1  0.81402000  0.73897000  0.00855000  1.0
  P  P20  1  0.06720000  0.66044000  0.00200000  1.0
  P  P21  1  0.28076000  0.65679000  0.36866000  1.0
  P  P22  1  0.29653000  0.66486000  0.63351000  1.0
  P  P23  1  0.68598000  0.73897000  0.49145000  1.0
  P  P24  1  0.43280000  0.66044000  0.49800000  1.0
  P  P25  1  0.71924000  0.84321000  0.86866000  1.0
  P  P26  1  0.70347000  0.83514000  0.13351000  1.0
  P  P27  1  0.31402000  0.76103000  0.99145000  1.0
  P  P28  1  0.56720000  0.83956000  0.99800000  1.0
  P  P29  1  0.78076000  0.84321000  0.63134000  1.0
  P  P30  1  0.79653000  0.83514000  0.36649000  1.0
  P  P31  1  0.18598000  0.76103000  0.50855000  1.0
  P  P32  1  0.93280000  0.83956000  0.50200000  1.0
  H  H1  1  0.66200000  0.23880000  0.79690000  1.0
  H  H2  1  0.65970000  0.13870000  0.79870000  1.0
  H  H3  1  0.68520000  0.94680000  0.80920000  1.0
  H  H4  1  0.68300000  0.04740000  0.81080000  1.0
  H  H5  1  0.68300000  0.23050000  0.19230000  1.0
  H  H6  1  0.67910000  0.13020000  0.19140000  1.0
  H  H7  1  0.70000000  0.93850000  0.18650000  1.0
  H  H8  1  0.69780000  0.03930000  0.18510000  1.0
  H  H9  1  0.83800000  0.23880000  0.70310000  1.0
  H  H10  1  0.84030000  0.13870000  0.70130000  1.0
  H  H11  1  0.81480000  0.94680000  0.69080000  1.0
  H  H12  1  0.81700000  0.04740000  0.68920000  1.0
  H  H13  1  0.81700000  0.23050000  0.30770000  1.0
  H  H14  1  0.82090000  0.13020000  0.30860000  1.0
  H  H15  1  0.80000000  0.93850000  0.31350000  1.0
  H  H16  1  0.80220000  0.03930000  0.31490000  1.0
  H  H17  1  0.16200000  0.26120000  0.20310000  1.0
  H  H18  1  0.15970000  0.36130000  0.20130000  1.0
  H  H19  1  0.18520000  0.55320000  0.19080000  1.0
  H  H20  1  0.18300000  0.45260000  0.18920000  1.0
  H  H21  1  0.18300000  0.26950000  0.80770000  1.0
  H  H22  1  0.17910000  0.36980000  0.80860000  1.0
  H  H23  1  0.20000000  0.56150000  0.81350000  1.0
  H  H24  1  0.19780000  0.46070000  0.81490000  1.0
  H  H25  1  0.33800000  0.26120000  0.29690000  1.0
  H  H26  1  0.34030000  0.36130000  0.29870000  1.0
  H  H27  1  0.31480000  0.55320000  0.30920000  1.0
  H  H28  1  0.31700000  0.45260000  0.31080000  1.0
  H  H29  1  0.31700000  0.26950000  0.69230000  1.0
  H  H30  1  0.32090000  0.36980000  0.69140000  1.0
  H  H31  1  0.30000000  0.56150000  0.68650000  1.0
  H  H32  1  0.30220000  0.46070000  0.68510000  1.0
  H  H33  1  0.33800000  0.76120000  0.20310000  1.0
  H  H34  1  0.34030000  0.86130000  0.20130000  1.0
  H  H35  1  0.31480000  0.05320000  0.19080000  1.0
  H  H36  1  0.31700000  0.95260000  0.18920000  1.0
  H  H37  1  0.31700000  0.76950000  0.80770000  1.0
  H  H38  1  0.32090000  0.86980000  0.80860000  1.0
  H  H39  1  0.30000000  0.06150000  0.81350000  1.0
  H  H40  1  0.30220000  0.96070000  0.81490000  1.0
  H  H41  1  0.16200000  0.76120000  0.29690000  1.0
  H  H42  1  0.15970000  0.86130000  0.29870000  1.0
  H  H43  1  0.18520000  0.05320000  0.30920000  1.0
  H  H44  1  0.18300000  0.95260000  0.31080000  1.0
  H  H45  1  0.18300000  0.76950000  0.69230000  1.0
  H  H46  1  0.17910000  0.86980000  0.69140000  1.0
  H  H47  1  0.20000000  0.06150000  0.68650000  1.0
  H  H48  1  0.19780000  0.96070000  0.68510000  1.0
  H  H49  1  0.83800000  0.73880000  0.79690000  1.0
  H  H50  1  0.84030000  0.63870000  0.79870000  1.0
  H  H51  1  0.81480000  0.44680000  0.80920000  1.0
  H  H52  1  0.81700000  0.54740000  0.81080000  1.0
  H  H53  1  0.81700000  0.73050000  0.19230000  1.0
  H  H54  1  0.82090000  0.63020000  0.19140000  1.0
  H  H55  1  0.80000000  0.43850000  0.18650000  1.0
  H  H56  1  0.80220000  0.53930000  0.18510000  1.0
  H  H57  1  0.66200000  0.73880000  0.70310000  1.0
  H  H58  1  0.65970000  0.63870000  0.70130000  1.0
  H  H59  1  0.68520000  0.44680000  0.69080000  1.0
  H  H60  1  0.68300000  0.54740000  0.68920000  1.0
  H  H61  1  0.68300000  0.73050000  0.30770000  1.0
  H  H62  1  0.67910000  0.63020000  0.30860000  1.0
  H  H63  1  0.70000000  0.43850000  0.31350000  1.0
  H  H64  1  0.69780000  0.53930000  0.31490000  1.0
  C  C1  1  0.69880000  0.21850000  0.77740000  1.0
  C  C2  1  0.69690000  0.15790000  0.77860000  1.0
  C  C3  1  0.71190000  0.96720000  0.78470000  1.0
  C  C4  1  0.71040000  0.02800000  0.78600000  1.0
  C  C5  1  0.71070000  0.21020000  0.21640000  1.0
  C  C6  1  0.70860000  0.14940000  0.21550000  1.0
  C  C7  1  0.72070000  0.95890000  0.21290000  1.0
  C  C8  1  0.71930000  0.01990000  0.21170000  1.0
  C  C9  1  0.80120000  0.21850000  0.72260000  1.0
  C  C10  1  0.80310000  0.15790000  0.72140000  1.0
  C  C11  1  0.78810000  0.96720000  0.71530000  1.0
  C  C12  1  0.78960000  0.02800000  0.71400000  1.0
  C  C13  1  0.78930000  0.21020000  0.28360000  1.0
  C  C14  1  0.79140000  0.14940000  0.28450000  1.0
  C  C15  1  0.77930000  0.95890000  0.28710000  1.0
  C  C16  1  0.78070000  0.01990000  0.28830000  1.0
  C  C17  1  0.19880000  0.28150000  0.22260000  1.0
  C  C18  1  0.19690000  0.34210000  0.22140000  1.0
  C  C19  1  0.21190000  0.53280000  0.21530000  1.0
  C  C20  1  0.21040000  0.47200000  0.21400000  1.0
  C  C21  1  0.21070000  0.28980000  0.78360000  1.0
  C  C22  1  0.20860000  0.35060000  0.78450000  1.0
  C  C23  1  0.22070000  0.54110000  0.78710000  1.0
  C  C24  1  0.21930000  0.48010000  0.78830000  1.0
  C  C25  1  0.30120000  0.28150000  0.27740000  1.0
  C  C26  1  0.30310000  0.34210000  0.27860000  1.0
  C  C27  1  0.28810000  0.53280000  0.28470000  1.0
  C  C28  1  0.28960000  0.47200000  0.28600000  1.0
  C  C29  1  0.28930000  0.28980000  0.71640000  1.0
  C  C30  1  0.29140000  0.35060000  0.71550000  1.0
  C  C31  1  0.27930000  0.54110000  0.71290000  1.0
  C  C32  1  0.28070000  0.48010000  0.71170000  1.0
  C  C33  1  0.30120000  0.78150000  0.22260000  1.0
  C  C34  1  0.30310000  0.84210000  0.22140000  1.0
  C  C35  1  0.28810000  0.03280000  0.21530000  1.0
  C  C36  1  0.28960000  0.97200000  0.21400000  1.0
  C  C37  1  0.28930000  0.78980000  0.78360000  1.0
  C  C38  1  0.29140000  0.85060000  0.78450000  1.0
  C  C39  1  0.27930000  0.04110000  0.78710000  1.0
  C  C40  1  0.28070000  0.98010000  0.78830000  1.0
  C  C41  1  0.19880000  0.78150000  0.27740000  1.0
  C  C42  1  0.19690000  0.84210000  0.27860000  1.0
  C  C43  1  0.21190000  0.03280000  0.28470000  1.0
  C  C44  1  0.21040000  0.97200000  0.28600000  1.0
  C  C45  1  0.21070000  0.78980000  0.71640000  1.0
  C  C46  1  0.20860000  0.85060000  0.71550000  1.0
  C  C47  1  0.22070000  0.04110000  0.71290000  1.0
  C  C48  1  0.21930000  0.98010000  0.71170000  1.0
  C  C49  1  0.80120000  0.71850000  0.77740000  1.0
  C  C50  1  0.80310000  0.65790000  0.77860000  1.0
  C  C51  1  0.78810000  0.46720000  0.78470000  1.0
  C  C52  1  0.78960000  0.52800000  0.78600000  1.0
  C  C53  1  0.78930000  0.71020000  0.21640000  1.0
  C  C54  1  0.79140000  0.64940000  0.21550000  1.0
  C  C55  1  0.77930000  0.45890000  0.21290000  1.0
  C  C56  1  0.78070000  0.51990000  0.21170000  1.0
  C  C57  1  0.69880000  0.71850000  0.72260000  1.0
  C  C58  1  0.69690000  0.65790000  0.72140000  1.0
  C  C59  1  0.71190000  0.46720000  0.71530000  1.0
  C  C60  1  0.71040000  0.52800000  0.71400000  1.0
  C  C61  1  0.71070000  0.71020000  0.28360000  1.0
  C  C62  1  0.70860000  0.64940000  0.28450000  1.0
  C  C63  1  0.72070000  0.45890000  0.28710000  1.0
  C  C64  1  0.71930000  0.51990000  0.28830000  1.0
  C  C65  1  0.75000000  0.12560000  0.75000000  1.0
  C  C66  1  0.75000000  0.06000000  0.75000000  1.0
  C  C67  1  0.25000000  0.37440000  0.25000000  1.0
  C  C68  1  0.25000000  0.44000000  0.25000000  1.0
  C  C69  1  0.25000000  0.87440000  0.25000000  1.0
  C  C70  1  0.25000000  0.94000000  0.25000000  1.0
  C  C71  1  0.75000000  0.62560000  0.75000000  1.0
  C  C72  1  0.75000000  0.56000000  0.75000000  1.0
  C  C73  1  0.75000000  0.11730000  0.25000000  1.0
  C  C74  1  0.75000000  0.05110000  0.25000000  1.0
  C  C75  1  0.25000000  0.38270000  0.75000000  1.0
  C  C76  1  0.25000000  0.44890000  0.75000000  1.0
  C  C77  1  0.25000000  0.88270000  0.75000000  1.0
  C  C78  1  0.25000000  0.94890000  0.75000000  1.0
  C  C79  1  0.75000000  0.61730000  0.25000000  1.0
  C  C80  1  0.75000000  0.55110000  0.25000000  1.0
  N  N1  1  0.75000000  0.24920000  0.75000000  1.0
  N  N2  1  0.75000000  0.93630000  0.75000000  1.0
  N  N3  1  0.25000000  0.25080000  0.25000000  1.0
  N  N4  1  0.25000000  0.56370000  0.25000000  1.0
  N  N5  1  0.25000000  0.75080000  0.25000000  1.0
  N  N6  1  0.25000000  0.06370000  0.25000000  1.0
  N  N7  1  0.75000000  0.74920000  0.75000000  1.0
  N  N8  1  0.75000000  0.43630000  0.75000000  1.0
  N  N9  1  0.75000000  0.24090000  0.25000000  1.0
  N  N10  1  0.75000000  0.92840000  0.25000000  1.0
  N  N11  1  0.25000000  0.25910000  0.75000000  1.0
  N  N12  1  0.25000000  0.57160000  0.75000000  1.0
  N  N13  1  0.25000000  0.75910000  0.75000000  1.0
  N  N14  1  0.25000000  0.07160000  0.75000000  1.0
  N  N15  1  0.75000000  0.74090000  0.25000000  1.0
  N  N16  1  0.75000000  0.42840000  0.25000000  1.0
  O  O1  1  0.72990000  0.34061000  0.82337000  1.0
  O  O2  1  0.74510000  0.38777000  0.90436000  1.0
  O  O3  1  0.87280000  0.35515000  0.85739000  1.0
  O  O4  1  0.78160000  0.28100000  0.89435000  1.0
  O  O5  1  0.74430000  0.33203000  0.17809000  1.0
  O  O6  1  0.75810000  0.37850000  0.09782000  1.0
  O  O7  1  0.88760000  0.35083000  0.14546000  1.0
  O  O8  1  0.79780000  0.27210000  0.10968000  1.0
  O  O9  1  0.27760000  0.25500000  0.98172000  1.0
  O  O10  1  0.16670000  0.29031000  0.03997000  1.0
  O  O11  1  0.14710000  0.29228000  0.94793000  1.0
  O  O12  1  0.14510000  0.19820000  0.99319000  1.0
  O  O13  1  0.02710000  0.34587000  0.99728000  1.0
  O  O14  1  0.89810000  0.36576000  0.04487000  1.0
  O  O15  1  0.89410000  0.37189000  0.95455000  1.0
  O  O16  1  0.91610000  0.27288000  0.99401000  1.0
  O  O17  1  0.88780000  0.45955000  0.10162000  1.0
  O  O18  1  0.87420000  0.47645000  0.00175000  1.0
  O  O19  1  0.73960000  0.39201000  0.00238000  1.0
  O  O20  1  0.03110000  0.44399000  0.94109000  1.0
  O  O21  1  0.16680000  0.40041000  0.99584000  1.0
  O  O22  1  0.02300000  0.32862000  0.89631000  1.0
  O  O23  1  0.03880000  0.43956000  0.05746000  1.0
  O  O24  1  0.03530000  0.32231000  0.09753000  1.0
  O  O25  1  0.87570000  0.46659000  0.90150000  1.0
  O  O26  1  0.77010000  0.34061000  0.67663000  1.0
  O  O27  1  0.75490000  0.38777000  0.59564000  1.0
  O  O28  1  0.62720000  0.35515000  0.64261000  1.0
  O  O29  1  0.71840000  0.28100000  0.60565000  1.0
  O  O30  1  0.75570000  0.33203000  0.32191000  1.0
  O  O31  1  0.74190000  0.37850000  0.40218000  1.0
  O  O32  1  0.61240000  0.35083000  0.35454000  1.0
  O  O33  1  0.70220000  0.27210000  0.39032000  1.0
  O  O34  1  0.22240000  0.25500000  0.51828000  1.0
  O  O35  1  0.33333333  0.29031000  0.46003000  1.0
  O  O36  1  0.35290000  0.29228000  0.55207000  1.0
  O  O37  1  0.35490000  0.19820000  0.50681000  1.0
  O  O38  1  0.47290000  0.34587000  0.50272000  1.0
  O  O39  1  0.60190000  0.36576000  0.45513000  1.0
  O  O40  1  0.60590000  0.37189000  0.54545000  1.0
  O  O41  1  0.58390000  0.27288000  0.50599000  1.0
  O  O42  1  0.61220000  0.45955000  0.39838000  1.0
  O  O43  1  0.62580000  0.47645000  0.49825000  1.0
  O  O44  1  0.76040000  0.39201000  0.49762000  1.0
  O  O45  1  0.46890000  0.44399000  0.55891000  1.0
  O  O46  1  0.33320000  0.40041000  0.50416000  1.0
  O  O47  1  0.47700000  0.32862000  0.60369000  1.0
  O  O48  1  0.46120000  0.43956000  0.44254000  1.0
  O  O49  1  0.46470000  0.32231000  0.40247000  1.0
  O  O50  1  0.62430000  0.46659000  0.59850000  1.0
  O  O51  1  0.22990000  0.15939000  0.17663000  1.0
  O  O52  1  0.24510000  0.11223000  0.09564000  1.0
  O  O53  1  0.37280000  0.14485000  0.14261000  1.0
  O  O54  1  0.28160000  0.21900000  0.10565000  1.0
  O  O55  1  0.24430000  0.16797000  0.82191000  1.0
  O  O56  1  0.25810000  0.12150000  0.90218000  1.0
  O  O57  1  0.38760000  0.14917000  0.85454000  1.0
  O  O58  1  0.29780000  0.22790000  0.89032000  1.0
  O  O59  1  0.77760000  0.24500000  0.01828000  1.0
  O  O60  1  0.66666667  0.20969000  0.96003000  1.0
  O  O61  1  0.64710000  0.20772000  0.05207000  1.0
  O  O62  1  0.64510000  0.30180000  0.00681000  1.0
  O  O63  1  0.52710000  0.15413000  0.00272000  1.0
  O  O64  1  0.39810000  0.13424000  0.95513000  1.0
  O  O65  1  0.39410000  0.12811000  0.04545000  1.0
  O  O66  1  0.41610000  0.22712000  0.00599000  1.0
  O  O67  1  0.38780000  0.04045000  0.89838000  1.0
  O  O68  1  0.37420000  0.02355000  0.99825000  1.0
  O  O69  1  0.23960000  0.10799000  0.99762000  1.0
  O  O70  1  0.53110000  0.05601000  0.05891000  1.0
  O  O71  1  0.66680000  0.09959000  0.00416000  1.0
  O  O72  1  0.52300000  0.17138000  0.10369000  1.0
  O  O73  1  0.53880000  0.06044000  0.94254000  1.0
  O  O74  1  0.53530000  0.17769000  0.90247000  1.0
  O  O75  1  0.37570000  0.03341000  0.09850000  1.0
  O  O76  1  0.27010000  0.15939000  0.32337000  1.0
  O  O77  1  0.25490000  0.11223000  0.40436000  1.0
  O  O78  1  0.12720000  0.14485000  0.35739000  1.0
  O  O79  1  0.21840000  0.21900000  0.39435000  1.0
  O  O80  1  0.25570000  0.16797000  0.67809000  1.0
  O  O81  1  0.24190000  0.12150000  0.59782000  1.0
  O  O82  1  0.11240000  0.14917000  0.64546000  1.0
  O  O83  1  0.20220000  0.22790000  0.60968000  1.0
  O  O84  1  0.72240000  0.24500000  0.48172000  1.0
  O  O85  1  0.83330000  0.20969000  0.53997000  1.0
  O  O86  1  0.85290000  0.20772000  0.44793000  1.0
  O  O87  1  0.85490000  0.30180000  0.49319000  1.0
  O  O88  1  0.97290000  0.15413000  0.49728000  1.0
  O  O89  1  0.10190000  0.13424000  0.54487000  1.0
  O  O90  1  0.10590000  0.12811000  0.45455000  1.0
  O  O91  1  0.08390000  0.22712000  0.49401000  1.0
  O  O92  1  0.11220000  0.04045000  0.60162000  1.0
  O  O93  1  0.12580000  0.02355000  0.50175000  1.0
  O  O94  1  0.26040000  0.10799000  0.50238000  1.0
  O  O95  1  0.96890000  0.05601000  0.44109000  1.0
  O  O96  1  0.83320000  0.09959000  0.49584000  1.0
  O  O97  1  0.97700000  0.17138000  0.39631000  1.0
  O  O98  1  0.96120000  0.06044000  0.55746000  1.0
  O  O99  1  0.96470000  0.17769000  0.59753000  1.0
  O  O100  1  0.12430000  0.03341000  0.40150000  1.0
  O  O101  1  0.27010000  0.65939000  0.17663000  1.0
  O  O102  1  0.25490000  0.61223000  0.09564000  1.0
  O  O103  1  0.12720000  0.64485000  0.14261000  1.0
  O  O104  1  0.21840000  0.71900000  0.10565000  1.0
  O  O105  1  0.25570000  0.66797000  0.82191000  1.0
  O  O106  1  0.24190000  0.62150000  0.90218000  1.0
  O  O107  1  0.11240000  0.64917000  0.85454000  1.0
  O  O108  1  0.20220000  0.72790000  0.89032000  1.0
  O  O109  1  0.72240000  0.74500000  0.01828000  1.0
  O  O110  1  0.83330000  0.70969000  0.96003000  1.0
  O  O111  1  0.85290000  0.70772000  0.05207000  1.0
  O  O112  1  0.85490000  0.80180000  0.00681000  1.0
  O  O113  1  0.97290000  0.65413000  0.00272000  1.0
  O  O114  1  0.10190000  0.63424000  0.95513000  1.0
  O  O115  1  0.10590000  0.62811000  0.04545000  1.0
  O  O116  1  0.08390000  0.72712000  0.00599000  1.0
  O  O117  1  0.11220000  0.54045000  0.89838000  1.0
  O  O118  1  0.12580000  0.52355000  0.99825000  1.0
  O  O119  1  0.26040000  0.60799000  0.99762000  1.0
  O  O120  1  0.96890000  0.55601000  0.05891000  1.0
  O  O121  1  0.83320000  0.59959000  0.00416000  1.0
  O  O122  1  0.97700000  0.67138000  0.10369000  1.0
  O  O123  1  0.96120000  0.56044000  0.94254000  1.0
  O  O124  1  0.96470000  0.67769000  0.90247000  1.0
  O  O125  1  0.12430000  0.53341000  0.09850000  1.0
  O  O126  1  0.22990000  0.65939000  0.32337000  1.0
  O  O127  1  0.24510000  0.61223000  0.40436000  1.0
  O  O128  1  0.37280000  0.64485000  0.35739000  1.0
  O  O129  1  0.28160000  0.71900000  0.39435000  1.0
  O  O130  1  0.24430000  0.66797000  0.67809000  1.0
  O  O131  1  0.25810000  0.62150000  0.59782000  1.0
  O  O132  1  0.38760000  0.64917000  0.64546000  1.0
  O  O133  1  0.29780000  0.72790000  0.60968000  1.0
  O  O134  1  0.77760000  0.74500000  0.48172000  1.0
  O  O135  1  0.66666667  0.70969000  0.53997000  1.0
  O  O136  1  0.64710000  0.70772000  0.44793000  1.0
  O  O137  1  0.64510000  0.80180000  0.49319000  1.0
  O  O138  1  0.52710000  0.65413000  0.49728000  1.0
  O  O139  1  0.39810000  0.63424000  0.54487000  1.0
  O  O140  1  0.39410000  0.62811000  0.45455000  1.0
  O  O141  1  0.41610000  0.72712000  0.49401000  1.0
  O  O142  1  0.38780000  0.54045000  0.60162000  1.0
  O  O143  1  0.37420000  0.52355000  0.50175000  1.0
  O  O144  1  0.23960000  0.60799000  0.50238000  1.0
  O  O145  1  0.53110000  0.55601000  0.44109000  1.0
  O  O146  1  0.66680000  0.59959000  0.49584000  1.0
  O  O147  1  0.52300000  0.67138000  0.39631000  1.0
  O  O148  1  0.53880000  0.56044000  0.55746000  1.0
  O  O149  1  0.53530000  0.67769000  0.59753000  1.0
  O  O150  1  0.37570000  0.53341000  0.40150000  1.0
  O  O151  1  0.77010000  0.84061000  0.82337000  1.0
  O  O152  1  0.75490000  0.88777000  0.90436000  1.0
  O  O153  1  0.62720000  0.85515000  0.85739000  1.0
  O  O154  1  0.71840000  0.78100000  0.89435000  1.0
  O  O155  1  0.75570000  0.83203000  0.17809000  1.0
  O  O156  1  0.74190000  0.87850000  0.09782000  1.0
  O  O157  1  0.61240000  0.85083000  0.14546000  1.0
  O  O158  1  0.70220000  0.77210000  0.10968000  1.0
  O  O159  1  0.22240000  0.75500000  0.98172000  1.0
  O  O160  1  0.33333333  0.79031000  0.03997000  1.0
  O  O161  1  0.35290000  0.79228000  0.94793000  1.0
  O  O162  1  0.35490000  0.69820000  0.99319000  1.0
  O  O163  1  0.47290000  0.84587000  0.99728000  1.0
  O  O164  1  0.60190000  0.86576000  0.04487000  1.0
  O  O165  1  0.60590000  0.87189000  0.95455000  1.0
  O  O166  1  0.58390000  0.77288000  0.99401000  1.0
  O  O167  1  0.61220000  0.95955000  0.10162000  1.0
  O  O168  1  0.62580000  0.97645000  0.00175000  1.0
  O  O169  1  0.76040000  0.89201000  0.00238000  1.0
  O  O170  1  0.46890000  0.94399000  0.94109000  1.0
  O  O171  1  0.33320000  0.90041000  0.99584000  1.0
  O  O172  1  0.47700000  0.82862000  0.89631000  1.0
  O  O173  1  0.46120000  0.93956000  0.05746000  1.0
  O  O174  1  0.46470000  0.82231000  0.09753000  1.0
  O  O175  1  0.62430000  0.96659000  0.90150000  1.0
  O  O176  1  0.72990000  0.84061000  0.67663000  1.0
  O  O177  1  0.74510000  0.88777000  0.59564000  1.0
  O  O178  1  0.87280000  0.85515000  0.64261000  1.0
  O  O179  1  0.78160000  0.78100000  0.60565000  1.0
  O  O180  1  0.74430000  0.83203000  0.32191000  1.0
  O  O181  1  0.75810000  0.87850000  0.40218000  1.0
  O  O182  1  0.88760000  0.85083000  0.35454000  1.0
  O  O183  1  0.79780000  0.77210000  0.39032000  1.0
  O  O184  1  0.27760000  0.75500000  0.51828000  1.0
  O  O185  1  0.16670000  0.79031000  0.46003000  1.0
  O  O186  1  0.14710000  0.79228000  0.55207000  1.0
  O  O187  1  0.14510000  0.69820000  0.50681000  1.0
  O  O188  1  0.02710000  0.84587000  0.50272000  1.0
  O  O189  1  0.89810000  0.86576000  0.45513000  1.0
  O  O190  1  0.89410000  0.87189000  0.54545000  1.0
  O  O191  1  0.91610000  0.77288000  0.50599000  1.0
  O  O192  1  0.88780000  0.95955000  0.39838000  1.0
  O  O193  1  0.87420000  0.97645000  0.49825000  1.0
  O  O194  1  0.73960000  0.89201000  0.49762000  1.0
  O  O195  1  0.03110000  0.94399000  0.55891000  1.0
  O  O196  1  0.16680000  0.90041000  0.50416000  1.0
  O  O197  1  0.02300000  0.82862000  0.60369000  1.0
  O  O198  1  0.03880000  0.93956000  0.44254000  1.0
  O  O199  1  0.03530000  0.82231000  0.40247000  1.0
  O  O200  1  0.87570000  0.96659000  0.59850000  1.0
