# generated using pymatgen
data_H3(C2N)2
_symmetry_space_group_name_H-M   'P 1'
_cell_length_a   24.59322500
_cell_length_b   24.59320000
_cell_length_c   28.36610000
_cell_angle_alpha   90.00000000
_cell_angle_beta   90.00000000
_cell_angle_gamma   119.99989912
_symmetry_Int_Tables_number   1
_chemical_formula_structural   H3(C2N)2
_chemical_formula_sum   'H54 C72 N36'
_cell_volume   14858.02988364
_cell_formula_units_Z   18
loop_
 _symmetry_equiv_pos_site_id
 _symmetry_equiv_pos_as_xyz
  1  'x, y, z'
loop_
 _atom_site_type_symbol
 _atom_site_label
 _atom_site_symmetry_multiplicity
 _atom_site_fract_x
 _atom_site_fract_y
 _atom_site_fract_z
 _atom_site_occupancy
  C  1  1  0.43151150  0.44993250  0.00139900  1
  C  2  1  0.46289850  0.44605150  0.04229600  1
  C  3  1  0.49879000  0.41559300  0.04169700  1
  C  4  1  0.49787350  0.38090550  0.00136700  1
  C  5  1  0.46409150  0.38132850  0.96088600  1
  C  6  1  0.43487150  0.41839450  0.96040500  1
  C  9  1  0.39850100  0.48417200  0.00144800  1
  C  10  1  0.36724700  0.48808400  0.04241600  1
  C  11  1  0.33150650  0.51870050  0.04194700  1
  C  12  1  0.33247800  0.55351600  0.00168400  1
  C  13  1  0.36611100  0.55302000  0.96113100  1
  C  14  1  0.39504150  0.51568750  0.96047400  1
  C  27  1  0.88169850  0.45120550  0.33473700  1
  C  28  1  0.84643150  0.41989250  0.37565600  1
  C  29  1  0.78008550  0.38388650  0.37498900  1
  C  30  1  0.74633400  0.38486900  0.33467400  1
  C  31  1  0.78056400  0.41871300  0.29422000  1
  C  32  1  0.84684000  0.44781300  0.29370600  1
  C  35  1  0.94895150  0.48419150  0.33480400  1
  C  36  1  0.98409550  0.51532650  0.37581400  1
  C  37  1  0.05045250  0.55115950  0.37531000  1
  C  38  1  0.08431200  0.55020400  0.33505100  1
  C  39  1  0.05019550  0.51658550  0.29449200  1
  C  40  1  0.98393350  0.48765450  0.29383200  1
  C  53  1  0.43280150  0.00100650  0.66807400  1
  C  54  1  0.43679400  0.03627300  0.70900400  1
  C  55  1  0.46709500  0.10261800  0.70833000  1
  C  56  1  0.50175450  0.13638750  0.66799200  1
  C  57  1  0.50136550  0.10217150  0.62753000  1
  C  58  1  0.46433200  0.03588700  0.62707200  1
  C  61  1  0.39849950  0.93375350  0.66813000  1
  C  62  1  0.39451250  0.89859050  0.70912200  1
  C  63  1  0.36400750  0.83223350  0.70859000  1
  C  64  1  0.32915950  0.79838650  0.66833800  1
  C  65  1  0.32958750  0.83252050  0.62781200  1
  C  66  1  0.36686050  0.89878150  0.62718800  1
  C  79  1  0.44318250  0.28462450  0.85412400  1
  C  81  1  0.43941500  0.18508200  0.86113200  1
  C  82  1  0.44299850  0.18094150  0.81184600  1
  C  84  1  0.44490800  0.27996500  0.80423000  1
  C  89  1  0.44199250  0.33383750  0.87880200  1
  C  91  1  0.44249600  0.12976700  0.78921400  1
  C  93  1  0.70481850  0.43971550  0.18750100  1
  C  95  1  0.60915750  0.44370250  0.19448800  1
  C  96  1  0.60126300  0.43978200  0.14521800  1
  C  98  1  0.69829000  0.43770300  0.13761100  1
  C  103  1  0.75527100  0.44101400  0.21218200  1
  C  105  1  0.55053200  0.44017500  0.12258900  1
  C  107  1  0.59808300  0.17794200  0.52074400  1
  C  109  1  0.69762350  0.27371650  0.52774200  1
  C  110  1  0.70180900  0.28137400  0.47844700  1
  C  112  1  0.60283250  0.18420550  0.47084700  1
  C  117  1  0.54882600  0.12759100  0.54542200  1
  C  119  1  0.75301000  0.33200900  0.45580100  1
  C  121  1  0.38720150  0.64989450  0.85444700  1
  C  123  1  0.39183400  0.74984100  0.86144000  1
  C  124  1  0.38789750  0.75383050  0.81216900  1
  C  126  1  0.38512650  0.65438950  0.80456200  1
  C  131  1  0.38820250  0.60057250  0.87909400  1
  C  133  1  0.38856600  0.80508300  0.78952400  1
  C  135  1  0.12598900  0.49551800  0.18780100  1
  C  137  1  0.22132150  0.49092050  0.19480600  1
  C  138  1  0.22924000  0.49483000  0.14553600  1
  C  140  1  0.13255750  0.49757350  0.13791700  1
  C  145  1  0.07567800  0.49454900  0.21245400  1
  C  147  1  0.27982500  0.49415900  0.12288900  1
  C  149  1  0.23270400  0.75678300  0.52115000  1
  C  151  1  0.13276550  0.66145250  0.52814400  1
  C  152  1  0.12881050  0.65348550  0.47887700  1
  C  154  1  0.22822700  0.75018000  0.47126600  1
  C  159  1  0.28197500  0.80715300  0.54581000  1
  C  161  1  0.07757600  0.60288100  0.45623800  1
  H  7  1  0.46558850  0.47149950  0.07159500  1
  H  16  1  0.42004750  0.51761950  0.93111700  1
  H  17  1  0.27877350  0.58849550  0.02941800  1
  H  18  1  0.30067700  0.61029400  0.97467200  1
  H  19  1  0.52992600  0.32442500  0.97417500  1
  H  20  1  0.55190100  0.34618900  0.02891700  1
  H  21  1  0.40997500  0.41662700  0.93102100  1
  H  22  1  0.36458750  0.46260750  0.07169000  1
  H  33  1  0.86917200  0.41699100  0.40488400  1
  H  42  1  0.96086250  0.46268650  0.26445900  1
  H  43  1  0.17298800  0.60392400  0.36279500  1
  H  44  1  0.17289800  0.58204300  0.30804300  1
  H  45  1  0.65781800  0.35285500  0.30746800  1
  H  46  1  0.65758200  0.33081700  0.36219600  1
  H  47  1  0.86999050  0.47290750  0.26439900  1
  H  48  1  0.96127850  0.51816150  0.40501800  1
  H  59  1  0.41118100  0.01353200  0.73824200  1
  H  68  1  0.36506550  0.92191250  0.59781500  1
  H  69  1  0.29431900  0.70969600  0.69601900  1
  H  70  1  0.27245650  0.70981650  0.64129300  1
  H  71  1  0.55811350  0.22491250  0.64075400  1
  H  72  1  0.53634650  0.22513750  0.69549200  1
  H  73  1  0.46602950  0.01271450  0.59768800  1
  H  74  1  0.42019450  0.92138950  0.73832100  1
  H  85  1  0.43764450  0.15123950  0.88303200  1
  H  87  1  0.44954900  0.36161200  0.78306200  1
  H  88  1  0.45025600  0.31713700  0.73934500  1
  H  90  1  0.43444900  0.36608800  0.86189200  1
  H  92  1  0.43309700  0.09020100  0.80754400  1
  H  99  1  0.57714450  0.44558350  0.21638800  1
  H  101  1  0.77523900  0.43294800  0.11644800  1
  H  102  1  0.72993150  0.43200650  0.07274100  1
  H  104  1  0.79490400  0.44815800  0.19524300  1
  H  106  1  0.52057750  0.44992550  0.14086800  1
  H  113  1  0.73136600  0.30590700  0.54964200  1
  H  115  1  0.52121100  0.10715900  0.44969100  1
  H  116  1  0.56574550  0.15225450  0.40595900  1
  H  118  1  0.51666750  0.08768450  0.52857400  1
  H  120  1  0.79246400  0.36228900  0.47418900  1
  H  127  1  0.39404400  0.78389300  0.88333000  1
  H  129  1  0.37937150  0.57223250  0.78342600  1
  H  130  1  0.37871350  0.61673850  0.73971300  1
  H  132  1  0.39525950  0.56801150  0.86216700  1
  H  134  1  0.39852250  0.84485950  0.80778300  1
  H  141  1  0.25317450  0.48873950  0.21670200  1
  H  143  1  0.05600950  0.50305450  0.11675100  1
  H  144  1  0.10119350  0.50372850  0.07304800  1
  H  146  1  0.03604550  0.48738350  0.19549000  1
  H  148  1  0.30962100  0.48418100  0.14116400  1
  H  155  1  0.09874800  0.62958400  0.55004300  1
  H  157  1  0.31021650  0.82678150  0.45010000  1
  H  158  1  0.26575300  0.78154800  0.40640000  1
  H  160  1  0.31458000  0.84669700  0.52883900  1
  H  162  1  0.03779250  0.57306550  0.47449500  1
  N  8  1  0.52926100  0.34798600  0.00144400  1
  N  15  1  0.30130150  0.58664150  0.00189600  1
  N  23  1  0.37032450  0.59061550  0.92468900  1
  N  24  1  0.29301800  0.51394800  0.07785600  1
  N  25  1  0.45999350  0.34389450  0.92436500  1
  N  26  1  0.53740400  0.42042700  0.07753900  1
  N  34  1  0.68202950  0.35348250  0.33473300  1
  N  41  1  0.14861500  0.58140700  0.33526600  1
  N  49  1  0.08358850  0.51239850  0.25805000  1
  N  50  1  0.08417850  0.58968150  0.41120500  1
  N  51  1  0.74725500  0.42295000  0.25773700  1
  N  52  1  0.74630850  0.34512150  0.41076400  1
  N  60  1  0.53460100  0.20069400  0.66803900  1
  N  67  1  0.29609100  0.73408500  0.66852400  1
  N  75  1  0.29195800  0.79915500  0.59137800  1
  N  76  1  0.36878050  0.79849150  0.74448600  1
  N  77  1  0.53875150  0.13550850  0.59099000  1
  N  78  1  0.46220000  0.13638900  0.74415100  1
  N  80  1  0.44097500  0.23665000  0.87983400  1
  N  83  1  0.44584300  0.22905500  0.78615200  1
  N  86  1  0.44806200  0.32319700  0.77305100  1
  N  94  1  0.65917300  0.44216000  0.21319700  1
  N  97  1  0.64641550  0.43671050  0.11953600  1
  N  100  1  0.73825350  0.43433050  0.10644000  1
  N  108  1  0.64600400  0.22376900  0.54645100  1
  N  111  1  0.65374650  0.23603750  0.45275800  1
  N  114  1  0.55962300  0.14409000  0.43967200  1
  N  122  1  0.39000450  0.69814750  0.88015200  1
  N  125  1  0.38444900  0.70543400  0.78649200  1
  N  128  1  0.38129050  0.61084550  0.77340000  1
  N  136  1  0.17145400  0.49275200  0.21351100  1
  N  139  1  0.18427850  0.49824450  0.11985000  1
  N  142  1  0.09280900  0.50132200  0.10674300  1
  N  150  1  0.18444950  0.71133450  0.54685300  1
  N  153  1  0.17720200  0.69844100  0.45319900  1
  N  156  1  0.27173050  0.78992750  0.44009500  1
