# generated using pymatgen
data_MnH6C12S2(NO2)2
_symmetry_space_group_name_H-M   'P 1'
_cell_length_a   9.50172000
_cell_length_b   14.09701000
_cell_length_c   14.09703000
_cell_angle_alpha   70.31485000
_cell_angle_beta   86.46303000
_cell_angle_gamma   86.46257000
_symmetry_Int_Tables_number   1
_chemical_formula_structural   MnH6C12S2(NO2)2
_chemical_formula_sum   'Mn4 H24 C48 S8 N8 O16'
_cell_volume   1772.81642062
_cell_formula_units_Z   4
loop_
 _symmetry_equiv_pos_site_id
 _symmetry_equiv_pos_as_xyz
  1  'x, y, z'
loop_
 _atom_site_type_symbol
 _atom_site_label
 _atom_site_symmetry_multiplicity
 _atom_site_fract_x
 _atom_site_fract_y
 _atom_site_fract_z
 _atom_site_occupancy
  Mn  Mn0  1  0.00000000  0.00000000  0.00000000  1
  Mn  Mn1  1  0.50000000  0.00000000  0.00000000  1
  Mn  Mn2  1  0.25001000  0.15294000  0.84706000  1
  Mn  Mn3  1  0.74999000  0.84706000  0.15294000  1
  H  H4  1  0.67373000  0.22124000  0.88850000  1
  H  H5  1  0.81909000  0.57114000  0.73680000  1
  H  H6  1  0.00511000  0.43222000  0.79590000  1
  H  H7  1  0.58124000  0.73208000  0.96927000  1
  H  H8  1  0.82677000  0.94076000  0.73251000  1
  H  H9  1  0.75757000  0.85355000  0.61560000  1
  H  H10  1  0.82629000  0.11150000  0.77876000  1
  H  H11  1  0.68092000  0.26320000  0.42886000  1
  H  H12  1  0.49490000  0.20410000  0.56778000  1
  H  H13  1  0.91877000  0.03073000  0.26792000  1
  H  H14  1  0.67323000  0.26749000  0.05924000  1
  H  H15  1  0.74244000  0.38440000  0.14645000  1
  H  H16  1  0.32628000  0.77876000  0.11150000  1
  H  H17  1  0.18091000  0.42886000  0.26319000  1
  H  H18  1  0.99489000  0.56778000  0.20410000  1
  H  H19  1  0.41876000  0.26791000  0.03073000  1
  H  H20  1  0.17323000  0.05924000  0.26749000  1
  H  H21  1  0.24244000  0.14645000  0.38440000  1
  H  H22  1  0.17372000  0.88850000  0.22124000  1
  H  H23  1  0.31909000  0.73680000  0.57114000  1
  H  H24  1  0.50510000  0.79590000  0.43222000  1
  H  H25  1  0.08124000  0.96927000  0.73208000  1
  H  H26  1  0.32677000  0.73251000  0.94076000  1
  H  H27  1  0.25757000  0.61560000  0.85355000  1
  C  C28  1  0.95964000  0.23129000  0.87376000  1
  C  C29  1  0.85292000  0.31628000  0.84454000  1
  C  C30  1  0.70822000  0.29807000  0.85448000  1
  C  C31  1  0.64997000  0.46591000  0.77837000  1
  C  C32  1  0.79077000  0.49299000  0.76950000  1
  C  C33  1  0.89352000  0.41634000  0.80256000  1
  C  C34  1  0.63451000  0.74535000  0.73455000  1
  C  C35  1  0.62201000  0.76016000  0.89137000  1
  C  C36  1  0.70874000  0.84304000  0.85988000  1
  C  C37  1  0.75821000  0.87735000  0.75892000  1
  C  C38  1  0.71927000  0.82917000  0.69403000  1
  C  C39  1  0.75226000  0.88836000  0.93346000  1
  C  C40  1  0.54038000  0.12624000  0.76871000  1
  C  C41  1  0.64709000  0.15546000  0.68372000  1
  C  C42  1  0.79179000  0.14552000  0.70193000  1
  C  C43  1  0.85004000  0.22163000  0.53409000  1
  C  C44  1  0.70924000  0.23050000  0.50701000  1
  C  C45  1  0.60649000  0.19744000  0.58366000  1
  C  C46  1  0.86549000  0.26545000  0.25465000  1
  C  C47  1  0.87800000  0.10862000  0.23984000  1
  C  C48  1  0.79127000  0.14012000  0.15696000  1
  C  C49  1  0.74179000  0.24108000  0.12265000  1
  C  C50  1  0.78073000  0.30596000  0.17083000  1
  C  C51  1  0.74775000  0.06654000  0.11164000  1
  C  C52  1  0.04037000  0.76871000  0.12624000  1
  C  C53  1  0.14708000  0.68372000  0.15546000  1
  C  C54  1  0.29178000  0.70193000  0.14551000  1
  C  C55  1  0.35004000  0.53409000  0.22163000  1
  C  C56  1  0.20923000  0.50701000  0.23050000  1
  C  C57  1  0.10648000  0.58366000  0.19744000  1
  C  C58  1  0.36549000  0.25465000  0.26545000  1
  C  C59  1  0.37800000  0.23984000  0.10863000  1
  C  C60  1  0.29127000  0.15696000  0.14012000  1
  C  C61  1  0.24179000  0.12265000  0.24108000  1
  C  C62  1  0.28073000  0.17083000  0.30596000  1
  C  C63  1  0.24774000  0.11164000  0.06654000  1
  C  C64  1  0.45963000  0.87376000  0.23129000  1
  C  C65  1  0.35291000  0.84454000  0.31628000  1
  C  C66  1  0.20821000  0.85448000  0.29807000  1
  C  C67  1  0.14996000  0.77837000  0.46591000  1
  C  C68  1  0.29077000  0.76950000  0.49299000  1
  C  C69  1  0.39351000  0.80256000  0.41634000  1
  C  C70  1  0.13451000  0.73455000  0.74535000  1
  C  C71  1  0.12201000  0.89137000  0.76016000  1
  C  C72  1  0.20873000  0.85988000  0.84304000  1
  C  C73  1  0.25821000  0.75892000  0.87735000  1
  C  C74  1  0.21927000  0.69404000  0.82917000  1
  C  C75  1  0.25226000  0.93346000  0.88836000  1
  S  S76  1  0.50387000  0.55222000  0.73449000  1
  S  S77  1  0.59282000  0.68280000  0.64854000  1
  S  S78  1  0.99614000  0.26551000  0.44778000  1
  S  S79  1  0.90718000  0.35146000  0.31720000  1
  S  S80  1  0.49613000  0.44778000  0.26551000  1
  S  S81  1  0.40718000  0.31720000  0.35146000  1
  S  S82  1  0.00387000  0.73449000  0.55222000  1
  S  S83  1  0.09282000  0.64854000  0.68280000  1
  N  N84  1  0.60748000  0.37113000  0.82144000  1
  N  N85  1  0.58701000  0.71065000  0.83060000  1
  N  N86  1  0.89253000  0.17856000  0.62887000  1
  N  N87  1  0.91300000  0.16940000  0.28935000  1
  N  N88  1  0.39252000  0.62887000  0.17856000  1
  N  N89  1  0.41299000  0.28935000  0.16940000  1
  N  N90  1  0.10748000  0.82144000  0.37113000  1
  N  N91  1  0.08701000  0.83060000  0.71065000  1
  O  O92  1  0.91685000  0.14369000  0.92222000  1
  O  O93  1  0.08911000  0.25225000  0.84519000  1
  O  O94  1  0.66656000  0.87637000  0.01320000  1
  O  O95  1  0.86612000  0.93328000  0.91847000  1
  O  O96  1  0.58316000  0.07778000  0.85631000  1
  O  O97  1  0.41090000  0.15481000  0.74775000  1
  O  O98  1  0.83344000  0.98680000  0.12363000  1
  O  O99  1  0.63389000  0.08153000  0.06672000  1
  O  O100  1  0.08315000  0.85631000  0.07778000  1
  O  O101  1  0.91090000  0.74775000  0.15480000  1
  O  O102  1  0.33344000  0.12363000  0.98680000  1
  O  O103  1  0.13389000  0.06672000  0.08153000  1
  O  O104  1  0.41684000  0.92222000  0.14369000  1
  O  O105  1  0.58910000  0.84519000  0.25225000  1
  O  O106  1  0.16657000  0.01320000  0.87637000  1
  O  O107  1  0.36612000  0.91847000  0.93328000  1
