# generated using pymatgen
data_H12C17N2
_symmetry_space_group_name_H-M   'P 1'
_cell_length_a   31.78174668
_cell_length_b   31.78174668
_cell_length_c   31.78174668
_cell_angle_alpha   109.47122063
_cell_angle_beta   109.47122063
_cell_angle_gamma   109.47122063
_symmetry_Int_Tables_number   1
_chemical_formula_structural   H12C17N2
_chemical_formula_sum   'H192 C272 N32'
_cell_volume   24712.19910493
_cell_formula_units_Z   16
loop_
 _symmetry_equiv_pos_site_id
 _symmetry_equiv_pos_as_xyz
  1  'x, y, z'
loop_
 _atom_site_type_symbol
 _atom_site_label
 _atom_site_symmetry_multiplicity
 _atom_site_fract_x
 _atom_site_fract_y
 _atom_site_fract_z
 _atom_site_occupancy
  C  1  1  0.22196600  0.97695200  0.03458900  1
  C  2  1  0.20551900  0.94381450  0.97645150  1
  C  3  1  0.17331350  0.98006500  0.03426450  1
  C  4  1  0.15489600  0.00589950  0.00367250  1
  C  7  1  0.14116650  0.97407800  0.94674050  1
  C  8  1  0.18686300  0.96731750  0.94256950  1
  C  13  1  0.23317700  0.02302250  0.96731250  1
  C  14  1  0.25026300  0.05870750  0.02476350  1
  C  17  1  0.20220950  0.06011300  0.02753750  1
  C  20  1  0.26682200  0.03225100  0.05607900  1
  C  23  1  0.26341050  0.80529900  0.24766450  1
  C  24  1  0.27986500  0.76361400  0.23097100  1
  C  25  1  0.31206200  0.85363050  0.29942550  1
  C  26  1  0.33048950  0.84146050  0.34367900  1
  C  29  1  0.34422300  0.79826050  0.32558550  1
  C  30  1  0.29853200  0.74839100  0.27313000  1
  C  35  1  0.25222050  0.72681500  0.28252450  1
  C  36  1  0.23513000  0.76717350  0.30112750  1
  C  39  1  0.28318250  0.81800700  0.35058250  1
  C  42  1  0.21855800  0.78192550  0.25810950  1
  C  45  1  0.55032650  0.52305700  0.25230550  1
  C  46  1  0.52534450  0.55620700  0.26901850  1
  C  47  1  0.54686200  0.51993700  0.20053100  1
  C  48  1  0.49042850  0.49410600  0.15629850  1
  C  51  1  0.46533000  0.52593200  0.17440800  1
  C  52  1  0.46795050  0.53270700  0.22687850  1
  C  57  1  0.43699450  0.47700700  0.21749850  1
  C  58  1  0.45874600  0.44131350  0.19888350  1
  C  61  1  0.46008500  0.43989450  0.14940850  1
  C  64  1  0.51652450  0.46776550  0.24187800  1
  C  67  1  0.93506400  0.69468700  0.46542900  1
  C  68  1  0.96004700  0.73638100  0.52356100  1
  C  69  1  0.93851550  0.64636950  0.46577100  1
  C  70  1  0.99494550  0.65856100  0.49637750  1
  C  73  1  0.02004150  0.70176650  0.55330300  1
  C  74  1  0.01743600  0.75162450  0.55746050  1
  C  79  1  0.04840200  0.77319900  0.53272200  1
  C  80  1  0.02665300  0.73283400  0.47527900  1
  C  83  1  0.02529750  0.68201350  0.47251500  1
  C  86  1  0.96887850  0.71805850  0.44394700  1
  C  89  1  0.76447600  0.02373550  0.96614150  1
  C  90  1  0.77741000  0.05584000  0.02318900  1
  C  91  1  0.81519350  0.02376000  0.96977850  1
  C  92  1  0.83413400  0.99917400  0.00172600  1
  C  95  1  0.84416850  0.02955700  0.05737550  1
  C  96  1  0.79615300  0.03332850  0.05815250  1
  C  101  1  0.75151350  0.97646400  0.03232450  1
  C  102  1  0.73807450  0.94187400  0.97594350  1
  C  105  1  0.78834600  0.94352450  0.97640350  1
  C  108  1  0.72109250  0.96732400  0.94357950  1
  C  111  1  0.72091750  0.19436800  0.75195550  1
  C  112  1  0.70795750  0.23846450  0.77111500  1
  C  113  1  0.67020850  0.14727550  0.70126400  1
  C  114  1  0.65125250  0.16026500  0.65772650  1
  C  117  1  0.64119400  0.20586450  0.67806050  1
  C  118  1  0.68919800  0.25467000  0.72985100  1
  C  123  1  0.73383350  0.27349600  0.71762550  1
  C  124  1  0.74730050  0.23057350  0.69648900  1
  C  127  1  0.69703900  0.18074500  0.64786800  1
  C  130  1  0.76429800  0.21520600  0.73893000  1
  C  133  1  0.43509700  0.47626400  0.74805700  1
  C  134  1  0.46002800  0.44414450  0.72888350  1
  C  135  1  0.43871950  0.47625250  0.79875800  1
  C  136  1  0.49525200  0.50083550  0.84228050  1
  C  139  1  0.52050950  0.47044150  0.82193000  1
  C  140  1  0.51750450  0.46665100  0.77013450  1
  C  145  1  0.54854750  0.52351200  0.78235250  1
  C  146  1  0.52676650  0.55811500  0.80350250  1
  C  149  1  0.52558450  0.55648000  0.85213450  1
  C  152  1  0.46895150  0.53266850  0.76107500  1
  C  155  1  0.05027650  0.30564250  0.53384400  1
  C  156  1  0.02534600  0.26152850  0.47679950  1
  C  157  1  0.04665550  0.35271500  0.53019750  1
  C  158  1  0.99012150  0.33970050  0.49824200  1
  C  161  1  0.96486400  0.29408550  0.44259450  1
  C  162  1  0.96787000  0.24529950  0.44182650  1
  C  167  1  0.93682950  0.22648600  0.46764850  1
  C  168  1  0.95860850  0.26942400  0.52402750  1
  C  171  1  0.95979100  0.31923100  0.52356100  1
  C  174  1  0.01642300  0.28481450  0.55639750  1
  C  353  1  0.29038100  0.11394850  0.04577050  1
  C  354  1  0.33757600  0.14298850  0.09314450  1
  C  356  1  0.34578200  0.22294700  0.10053400  1
  C  357  1  0.30114800  0.19637100  0.05139400  1
  C  358  1  0.27657350  0.14240450  0.02313700  1
  C  360  1  0.37030250  0.27706250  0.13013700  1
  C  361  1  0.44287100  0.35701400  0.20188300  1
  C  362  1  0.42452400  0.38609200  0.18380500  1
  C  363  1  0.37343550  0.35760800  0.14152350  1
  C  366  1  0.34772800  0.30364650  0.11211050  1
  C  367  1  0.30228700  0.27664100  0.06396000  1
  C  368  1  0.27999850  0.22338250  0.03297800  1
  C  373  1  0.19503250  0.74804950  0.31626400  1
  C  374  1  0.14780000  0.74816950  0.29808450  1
  C  376  1  0.13963400  0.74744100  0.36988700  1
  C  377  1  0.18426300  0.74293050  0.38794150  1
  C  378  1  0.20884650  0.73927200  0.35856350  1
  C  380  1  0.11512300  0.75253400  0.39948900  1
  C  381  1  0.04259000  0.75179850  0.40692050  1
  C  382  1  0.06090300  0.75196900  0.45429900  1
  C  383  1  0.11198100  0.76074000  0.47688000  1
  C  386  1  0.13769750  0.75706950  0.44863800  1
  C  387  1  0.18310900  0.75431400  0.46705700  1
  C  388  1  0.20544300  0.74570300  0.43611800  1
  C  433  1  0.23791800  0.95460150  0.06847350  1
  C  434  1  0.23820250  0.90743750  0.05074600  1
  C  436  1  0.24329800  0.90263150  0.12548450  1
  C  437  1  0.24599800  0.95099000  0.14694500  1
  C  438  1  0.24682350  0.97771250  0.11955900  1
  C  440  1  0.24201500  0.87483200  0.15199500  1
  C  441  1  0.24713050  0.80519350  0.16189400  1
  C  442  1  0.24745900  0.82323500  0.20936100  1
  C  443  1  0.23852000  0.86539200  0.22356700  1
  C  446  1  0.23932350  0.89359350  0.19766000  1
  C  447  1  0.24016950  0.94088450  0.21778500  1
  C  448  1  0.24515050  0.97026550  0.19339000  1
  C  453  1  0.87882650  0.67673050  0.43152700  1
  C  454  1  0.84939150  0.69478350  0.44922100  1
  C  456  1  0.76985150  0.62511400  0.37448450  1
  C  457  1  0.79675450  0.60634950  0.35303800  1
  C  458  1  0.85086150  0.63454000  0.38044750  1
  C  460  1  0.71554100  0.59732250  0.34796250  1
  C  461  1  0.63599200  0.59250550  0.33808150  1
  C  462  1  0.60657500  0.54540200  0.29057100  1
  C  463  1  0.63453700  0.52227900  0.27635700  1
  C  466  1  0.68864300  0.54897650  0.30228550  1
  C  467  1  0.71581000  0.52971650  0.28214850  1
  C  468  1  0.76959650  0.55904700  0.30660750  1
  C  513  1  0.16719150  0.93209200  0.88608750  1
  C  514  1  0.18594200  0.94797450  0.85612550  1
  C  516  1  0.11568850  0.87317300  0.77715350  1
  C  517  1  0.09607600  0.85303150  0.80435050  1
  C  518  1  0.12333250  0.88203250  0.85852400  1
  C  520  1  0.08868350  0.84588800  0.72286550  1
  C  521  1  0.08450950  0.83716550  0.64389200  1
  C  522  1  0.03868400  0.78844300  0.61393700  1
  C  523  1  0.01618250  0.77214350  0.64149700  1
  C  526  1  0.04135150  0.79906900  0.69567150  1
  C  527  1  0.02168200  0.77952250  0.72297050  1
  C  528  1  0.04923400  0.80605600  0.77705400  1
  C  533  1  0.44670700  0.56794550  0.24243450  1
  C  534  1  0.40090600  0.55209050  0.24538450  1
  C  536  1  0.39670700  0.62686900  0.24987600  1
  C  537  1  0.44404000  0.64701050  0.25039450  1
  C  538  1  0.46920350  0.61800350  0.24863000  1
  C  540  1  0.36969600  0.65414900  0.25014200  1
  C  541  1  0.29941000  0.66284050  0.25463450  1
  C  542  1  0.31821800  0.71159150  0.25758950  1
  C  543  1  0.36207500  0.72789350  0.25138650  1
  C  546  1  0.38931450  0.70096200  0.24962050  1
  C  547  1  0.43616950  0.72051900  0.24951250  1
  C  548  1  0.46370550  0.69397200  0.25050050  1
  C  593  1  0.69911850  0.88603450  0.95419800  1
  C  594  1  0.65164800  0.85675950  0.90708050  1
  C  596  1  0.64256900  0.77711350  0.90128450  1
  C  597  1  0.68787100  0.80389550  0.94991750  1
  C  598  1  0.71328500  0.85795000  0.97716500  1
  C  600  1  0.61685050  0.72287900  0.87276650  1
  C  601  1  0.54300750  0.64323450  0.80220200  1
  C  602  1  0.56086050  0.61393950  0.82035100  1
  C  603  1  0.61190400  0.64204250  0.86262550  1
  C  606  1  0.63870400  0.69609450  0.89127550  1
  C  607  1  0.68476000  0.72318750  0.93890650  1
  C  608  1  0.70840500  0.77680000  0.96887600  1
  C  613  1  0.78624600  0.24780700  0.67960500  1
  C  614  1  0.83374900  0.24821800  0.69782900  1
  C  616  1  0.84279650  0.25142600  0.62722150  1
  C  617  1  0.79748950  0.25474400  0.60869350  1
  C  618  1  0.77206250  0.25655350  0.63731400  1
  C  620  1  0.86851050  0.24861700  0.59870150  1
  C  621  1  0.94233250  0.25183450  0.59287000  1
  C  622  1  0.92450050  0.25219000  0.54574850  1
  C  623  1  0.87346400  0.24344450  0.52282350  1
  C  626  1  0.84665500  0.24526950  0.55006150  1
  C  627  1  0.80061750  0.24687400  0.53111050  1
  C  628  1  0.77692600  0.25311750  0.56104050  1
  C  673  1  0.74865400  0.04538500  0.93146300  1
  C  674  1  0.74697650  0.09184150  0.94819800  1
  C  676  1  0.74244250  0.09638250  0.87352100  1
  C  677  1  0.74090800  0.04856200  0.85276600  1
  C  678  1  0.74138800  0.02263050  0.88098950  1
  C  680  1  0.74302600  0.12382700  0.84666500  1
  C  681  1  0.73845800  0.19395550  0.83758150  1
  C  682  1  0.73674450  0.17551750  0.78943400  1
  C  683  1  0.74405600  0.13234000  0.77395400  1
  C  686  1  0.74456100  0.10460750  0.80037550  1
  C  687  1  0.74418000  0.05752800  0.78052700  1
  C  688  1  0.74130350  0.02910200  0.80607350  1
  C  693  1  0.10660800  0.32451400  0.56853300  1
  C  694  1  0.13632450  0.30606500  0.55182850  1
  C  696  1  0.21553950  0.37623200  0.62649750  1
  C  697  1  0.18846900  0.39545300  0.64724500  1
  C  698  1  0.13431950  0.36772850  0.61900300  1
  C  700  1  0.26983950  0.40367300  0.65336050  1
  C  701  1  0.34906200  0.40822000  0.66242600  1
  C  702  1  0.37876150  0.45462100  0.71060750  1
  C  703  1  0.35105450  0.47739500  0.72609250  1
  C  706  1  0.29690450  0.45148750  0.69965400  1
  C  707  1  0.26967250  0.47094300  0.71951450  1
  C  708  1  0.21569700  0.44254950  0.69392850  1
  C  753  1  0.81306050  0.06800400  0.11387750  1
  C  754  1  0.79462400  0.05072250  0.14332050  1
  C  756  1  0.86564900  0.12432850  0.22287250  1
  C  757  1  0.88434800  0.14587050  0.19599550  1
  C  758  1  0.85590750  0.11871950  0.14189700  1
  C  760  1  0.89416250  0.15005750  0.27711500  1
  C  761  1  0.90011150  0.15858800  0.35666750  1
  C  762  1  0.94682250  0.20647400  0.38610350  1
  C  763  1  0.96952350  0.22130750  0.35808800  1
  C  766  1  0.94257750  0.19564200  0.30399050  1
  C  767  1  0.96154100  0.21610950  0.27685350  1
  C  768  1  0.93194750  0.19197450  0.22313000  1
  C  773  1  0.53854050  0.43195500  0.75238250  1
  C  774  1  0.58521000  0.44920000  0.75111500  1
  C  776  1  0.59118600  0.37561700  0.74859400  1
  C  777  1  0.54277700  0.35408100  0.74577100  1
  C  778  1  0.51584650  0.38124450  0.74452500  1
  C  780  1  0.61970150  0.34988800  0.75138050  1
  C  781  1  0.69076900  0.34139800  0.74886400  1
  C  782  1  0.67224900  0.29346150  0.74758950  1
  C  783  1  0.62939850  0.27861500  0.75544850  1
  C  786  1  0.60098950  0.30430150  0.75420300  1
  C  787  1  0.55337450  0.28381650  0.75267600  1
  C  788  1  0.52381800  0.30799200  0.74729600  1
  C  833  1  0.88316900  0.00097550  0.00364450  1
  C  834  1  0.88760200  0.95648850  0.98361950  1
  C  836  1  0.97487450  0.00583250  0.00701500  1
  C  837  1  0.97405100  0.05227600  0.02805200  1
  C  838  1  0.92799500  0.04898250  0.02576650  1
  C  840  1  0.01971900  0.00719400  0.00751100  1
  C  841  1  0.06250550  0.96206600  0.98566950  1
  C  842  1  0.10852750  0.00810400  0.00582650  1
  C  843  1  0.10795300  0.05470450  0.02815650  1
  C  846  1  0.06415750  0.05508050  0.02921900  1
  C  847  1  0.06343350  0.10135750  0.05074100  1
  C  848  1  0.01856950  0.09996150  0.05008900  1
  C  853  1  0.60222250  0.11313750  0.61049500  1
  C  854  1  0.59779000  0.08869150  0.56157450  1
  C  856  1  0.51051900  0.02480200  0.52364400  1
  C  857  1  0.51134650  0.04665550  0.57091200  1
  C  858  1  0.55740050  0.09042700  0.61367950  1
  C  860  1  0.46567500  0.98046400  0.48015900  1
  C  861  1  0.42287750  0.91585300  0.39223350  1
  C  862  1  0.37685800  0.88998200  0.39225100  1
  C  863  1  0.37743550  0.91288200  0.43942950  1
  C  866  1  0.42123200  0.95773250  0.48360250  1
  C  867  1  0.42196200  0.97996900  0.53060900  1
  C  868  1  0.46683100  0.02417000  0.57408200  1
  C  873  1  0.49536650  0.49903350  0.88951300  1
  C  874  1  0.51982600  0.54351950  0.93842950  1
  C  876  1  0.49385050  0.49417400  0.97635050  1
  C  877  1  0.46844600  0.44773300  0.92908400  1
  C  878  1  0.46946750  0.45102500  0.88632550  1
  C  880  1  0.49297000  0.49281350  0.01982750  1
  C  881  1  0.51624600  0.53793900  0.10773700  1
  C  882  1  0.49035800  0.49190000  0.10771800  1
  C  883  1  0.46608500  0.44530000  0.06054300  1
  C  886  1  0.46677950  0.44492450  0.01637500  1
  C  887  1  0.44202450  0.39864850  0.96937300  1
  C  888  1  0.44278450  0.40004700  0.92591050  1
  C  893  1  0.99000150  0.38681700  0.49632350  1
  C  894  1  0.96552900  0.41126550  0.51634250  1
  C  896  1  0.99151600  0.47517550  0.49299150  1
  C  897  1  0.01691250  0.45331050  0.47194500  1
  C  898  1  0.01588700  0.40952350  0.47420450  1
  C  900  1  0.99239600  0.51953550  0.49251750  1
  C  901  1  0.96912450  0.58417300  0.51438050  1
  C  902  1  0.99500900  0.61004400  0.49423000  1
  C  903  1  0.01928150  0.58714300  0.47189950  1
  C  906  1  0.01858300  0.54227550  0.47081950  1
  C  907  1  0.04333400  0.52002850  0.44929150  1
  C  908  1  0.04257550  0.47580550  0.44992400  1
  H  5  1  0.18086100  0.00233100  0.07316400  1
  H  6  1  0.14236900  0.94100650  0.01820550  1
  H  9  1  0.10746650  0.93650450  0.92886000  1
  H  10  1  0.12965250  0.99262150  0.92507200  1
  H  11  1  0.17474900  0.90492700  0.96090100  1
  H  12  1  0.23792400  0.94035650  0.97407350  1
  H  15  1  0.22147600  0.04012450  0.94421950  1
  H  16  1  0.26628300  0.02071450  0.96569650  1
  H  18  1  0.18859150  0.07835500  0.00675150  1
  H  19  1  0.21419550  0.08386550  0.06798300  1
  H  21  1  0.30007750  0.02965650  0.05523900  1
  H  22  1  0.27911000  0.05651400  0.09635000  1
  H  27  1  0.30451300  0.88497900  0.31414500  1
  H  28  1  0.34300350  0.86851700  0.29130850  1
  H  31  1  0.37792200  0.81408700  0.32171200  1
  H  32  1  0.35574400  0.78811150  0.35564550  1
  H  33  1  0.31062900  0.77883550  0.22284850  1
  H  34  1  0.24746000  0.72882600  0.19510900  1
  H  37  1  0.26393050  0.71542350  0.31132700  1
  H  38  1  0.21911450  0.69209050  0.24711200  1
  H  40  1  0.29680850  0.81084200  0.38244350  1
  H  41  1  0.27119000  0.84646050  0.36234950  1
  H  43  1  0.18530350  0.74782800  0.22226050  1
  H  44  1  0.20626500  0.80990400  0.27008600  1
  H  49  1  0.56348250  0.49766150  0.18579500  1
  H  50  1  0.56985850  0.55899200  0.20863750  1
  H  53  1  0.48501600  0.56350150  0.17826850  1
  H  54  1  0.42511300  0.50738950  0.14436150  1
  H  55  1  0.54868000  0.59509000  0.27713100  1
  H  56  1  0.52643650  0.55966750  0.30488600  1
  H  59  1  0.39679350  0.45990650  0.18870800  1
  H  60  1  0.43770350  0.47932450  0.25292200  1
  H  62  1  0.42105000  0.42165450  0.11756050  1
  H  63  1  0.47676700  0.41613550  0.13762850  1
  H  65  1  0.51829950  0.47036800  0.27773650  1
  H  66  1  0.53252450  0.44349750  0.22989000  1
  H  71  1  0.92189500  0.61501400  0.42687700  1
  H  72  1  0.91551450  0.63148200  0.48182750  1
  H  75  1  0.00034450  0.68594250  0.57118000  1
  H  76  1  0.06025500  0.71193250  0.57498250  1
  H  77  1  0.93670800  0.72115800  0.53910800  1
  H  78  1  0.95896000  0.77115900  0.52593200  1
  H  81  1  0.08860000  0.78460350  0.55582650  1
  H  82  1  0.04769750  0.80791450  0.53432800  1
  H  84  1  0.06432750  0.68919000  0.49331350  1
  H  85  1  0.00861650  0.65355500  0.43207450  1
  H  87  1  0.96711250  0.75214700  0.44477550  1
  H  88  1  0.95288050  0.69007400  0.40367850  1
  H  93  1  0.80987800  0.00227200  0.93171600  1
  H  94  1  0.84494950  0.06355900  0.98646450  1
  H  97  1  0.87702850  0.06793450  0.07648000  1
  H  98  1  0.85570350  0.01145550  0.07961400  1
  H  99  1  0.80716150  0.09543450  0.03951600  1
  H  100  1  0.74338100  0.05715350  0.02315950  1
  H  103  1  0.76334200  0.95989600  0.05600900  1
  H  104  1  0.71687050  0.97656450  0.03165800  1
  H  106  1  0.80238750  0.92607500  0.99797650  1
  H  107  1  0.77885250  0.92050800  0.93671550  1
  H  109  1  0.68640450  0.96790300  0.94223450  1
  H  110  1  0.71094900  0.94349250  0.90397150  1
  H  115  1  0.67553650  0.11453750  0.68509900  1
  H  116  1  0.64045150  0.13419450  0.71130500  1
  H  119  1  0.60833400  0.19209750  0.68357350  1
  H  120  1  0.62965400  0.21655900  0.64842000  1
  H  121  1  0.67820700  0.22502900  0.78095700  1
  H  122  1  0.74197650  0.27247200  0.80645250  1
  H  125  1  0.72199650  0.28534700  0.68922650  1
  H  126  1  0.76847200  0.30748050  0.75237050  1
  H  128  1  0.68298500  0.18826350  0.61636950  1
  H  129  1  0.70654900  0.15056400  0.63435600  1
  H  131  1  0.79897850  0.24855750  0.77419500  1
  H  132  1  0.77445800  0.18575400  0.72524900  1
  H  137  1  0.42215200  0.49774750  0.81493350  1
  H  138  1  0.41560000  0.43645600  0.78871900  1
  H  141  1  0.50123850  0.43207050  0.81642500  1
  H  142  1  0.56085100  0.48854550  0.85156350  1
  H  143  1  0.43675450  0.40455300  0.71904450  1
  H  144  1  0.45868550  0.44282500  0.69353950  1
  H  147  1  0.58880200  0.54007750  0.81074450  1
  H  148  1  0.54777450  0.52340000  0.74760050  1
  H  150  1  0.56460850  0.57392950  0.88362200  1
  H  151  1  0.50891950  0.57950400  0.86565650  1
  H  153  1  0.46702200  0.53208100  0.72580300  1
  H  154  1  0.45318000  0.55650500  0.77476400  1
  H  159  1  0.06322300  0.38546400  0.56825500  1
  H  160  1  0.06977150  0.36579000  0.51351450  1
  H  163  1  0.98414000  0.30784350  0.42349450  1
  H  164  1  0.92452550  0.28337700  0.42035250  1
  H  165  1  0.04861600  0.27495600  0.46047400  1
  H  166  1  0.02669350  0.22753400  0.47683250  1
  H  169  1  0.89657350  0.21461800  0.44395650  1
  H  170  1  0.93760200  0.19251000  0.46831900  1
  H  172  1  0.92076850  0.31169600  0.50198150  1
  H  173  1  0.97645600  0.34942400  0.56324600  1
  H  175  1  0.01835300  0.25147550  0.55775050  1
  H  176  1  0.03219050  0.31427950  0.59600500  1
  H  359  1  0.24352300  0.12392400  0.98859600  1
  H  364  1  0.35158200  0.12591550  0.11165750  1
  H  369  1  0.28631750  0.29565700  0.05016350  1
  H  370  1  0.24717000  0.20437200  0.99800600  1
  H  371  1  0.35736050  0.37609300  0.12697550  1
  H  372  1  0.47846500  0.37408200  0.23294900  1
  H  379  1  0.24188050  0.73773650  0.37305300  1
  H  384  1  0.13384650  0.75276500  0.26706250  1
  H  389  1  0.19910650  0.75653000  0.50206250  1
  H  390  1  0.23823900  0.74350400  0.44990900  1
  H  391  1  0.12801700  0.76229850  0.51146250  1
  H  392  1  0.00696850  0.74719150  0.38836500  1
  H  439  1  0.24862700  0.01244800  0.13543200  1
  H  444  1  0.23358750  0.88855100  0.01518450  1
  H  449  1  0.23921600  0.95522050  0.25125750  1
  H  450  1  0.24611050  0.00469350  0.20868500  1
  H  451  1  0.23672950  0.87946350  0.25650600  1
  H  452  1  0.25174850  0.77424850  0.14762200  1
  H  459  1  0.86976250  0.62051300  0.36460450  1
  H  464  1  0.86605750  0.72569650  0.48480200  1
  H  469  1  0.69668200  0.49527100  0.24869500  1
  H  470  1  0.78873000  0.54473300  0.29129200  1
  H  471  1  0.61564000  0.48754150  0.24342350  1
  H  472  1  0.61932450  0.61141450  0.35233200  1
  H  519  1  0.10820150  0.86772200  0.87769850  1
  H  524  1  0.21778200  0.98266750  0.87219950  1
  H  529  1  0.98779700  0.74549400  0.70380700  1
  H  530  1  0.03437800  0.79133050  0.79622050  1
  H  531  1  0.98270450  0.73783150  0.62232400  1
  H  532  1  0.10312600  0.85293550  0.62781650  1
  H  539  1  0.50269400  0.63229900  0.24781400  1
  H  544  1  0.38226750  0.51738000  0.24248650  1
  H  549  1  0.45101800  0.75453350  0.24962550  1
  H  550  1  0.49760350  0.70870350  0.25038500  1
  H  551  1  0.37718200  0.76219400  0.25219500  1
  H  552  1  0.26759250  0.64709600  0.25752850  1
  H  599  1  0.74632750  0.87667550  0.01177400  1
  H  604  1  0.63737550  0.87356050  0.88837000  1
  H  609  1  0.70028900  0.70408100  0.95303600  1
  H  610  1  0.74164800  0.79590400  0.00350600  1
  H  611  1  0.62779500  0.62331650  0.87693450  1
  H  612  1  0.50749300  0.62643850  0.77113050  1
  H  619  1  0.73902650  0.25814250  0.62304700  1
  H  624  1  0.84799050  0.24371850  0.72886500  1
  H  629  1  0.78505950  0.24542200  0.49645050  1
  H  630  1  0.74370550  0.25454550  0.54691900  1
  H  631  1  0.85759300  0.24182450  0.48818450  1
  H  632  1  0.97787150  0.25634850  0.61161700  1
  H  679  1  0.74111800  0.98860450  0.86602750  1
  H  684  1  0.75060450  0.11057000  0.98328850  1
  H  689  1  0.74456850  0.04292650  0.74676300  1
  H  690  1  0.74091300  0.99495050  0.79108050  1
  H  691  1  0.74432200  0.11764850  0.74019550  1
  H  692  1  0.73481850  0.22541050  0.85267500  1
  H  699  1  0.11522600  0.38238800  0.63394600  1
  H  704  1  0.11996900  0.27463600  0.51671500  1
  H  709  1  0.28883000  0.50510600  0.75326400  1
  H  710  1  0.19653400  0.45713700  0.70893200  1
  H  711  1  0.37014500  0.51142650  0.75984650  1
  H  712  1  0.36542050  0.38946550  0.64735700  1
  H  759  1  0.87072550  0.13403050  0.12310600  1
  H  764  1  0.76326750  0.01547100  0.12668650  1
  H  769  1  0.99606900  0.24947050  0.29597050  1
  H  770  1  0.94618250  0.20738750  0.20401000  1
  H  771  1  0.00361850  0.25492050  0.37687800  1
  H  772  1  0.88149250  0.14385900  0.37330050  1
  H  779  1  0.48173500  0.36596650  0.74401950  1
  H  784  1  0.60387183  0.48449233  0.75507650  1
  H  789  1  0.53915000  0.25047700  0.75388000  1
  H  790  1  0.48927450  0.29256200  0.74609050  1
  H  791  1  0.61462900  0.24501000  0.75595800  1
  H  792  1  0.72210833  0.35610633  0.74490500  1
  H  839  1  0.92742450  0.08256750  0.04039000  1
  H  844  1  0.85778100  0.92015300  0.96650500  1
  H  849  1  0.09524550  0.13626000  0.06654150  1
  H  850  1  0.01858700  0.13385150  0.06545650  1
  H  851  1  0.13955000  0.08957200  0.04406500  1
  H  852  1  0.05938450  0.92677150  0.96946000  1
  H  859  1  0.55797350  0.10561300  0.64783350  1
  H  864  1  0.62761850  0.10139450  0.55506600  1
  H  869  1  0.39014200  0.96396400  0.53369300  1
  H  870  1  0.46680600  0.03952600  0.60794900  1
  H  871  1  0.34583750  0.89719650  0.44269800  1
  H  872  1  0.42599650  0.90277100  0.36005950  1
  H  879  1  0.45050500  0.41744200  0.85217000  1
  H  884  1  0.53905800  0.57985550  0.94494650  1
  H  889  1  0.42291650  0.36374400  0.96627850  1
  H  890  1  0.42426500  0.36615850  0.89203950  1
  H  891  1  0.44712050  0.41043400  0.05727250  1
  H  892  1  0.53533600  0.57323200  0.13990900  1
  H  899  1  0.03485100  0.39433400  0.45958400  1
  H  904  1  0.94631800  0.39856250  0.53346550  1
  H  909  1  0.06242800  0.53603800  0.43348300  1
  H  910  1  0.06107650  0.46044300  0.43453050  1
  H  911  1  0.03823850  0.60283300  0.45599150  1
  H  912  1  0.95003950  0.59725900  0.53059150  1
  N  355  1  0.36292150  0.19529300  0.11854950  1
  N  365  1  0.41598200  0.30471200  0.17491400  1
  N  375  1  0.12249400  0.74829550  0.32508350  1
  N  385  1  0.06945800  0.75166200  0.38148400  1
  N  435  1  0.24077200  0.88357000  0.07907200  1
  N  445  1  0.24454000  0.83094650  0.13545350  1
  N  455  1  0.79719600  0.66900500  0.42089200  1
  N  465  1  0.68819050  0.61637300  0.36451050  1
  N  515  1  0.16006350  0.91901150  0.80406000  1
  N  525  1  0.10761000  0.86336100  0.69595700  1
  N  535  1  0.37779000  0.58104300  0.24843800  1
  N  545  1  0.32530500  0.63666850  0.25157950  1
  N  595  1  0.62567700  0.80452600  0.88264100  1
  N  605  1  0.57079200  0.69546800  0.82847100  1
  N  615  1  0.85969350  0.24970000  0.67153750  1
  N  625  1  0.91456500  0.25036550  0.61733850  1
  N  675  1  0.74427500  0.11534400  0.91956900  1
  N  685  1  0.74118300  0.16803800  0.86379400  1
  N  695  1  0.18845550  0.33201100  0.58045450  1
  N  705  1  0.29692850  0.38471750  0.63622800  1
  N  755  1  0.82106950  0.07854950  0.19554300  1
  N  765  1  0.87571700  0.13280450  0.30444350  1
  N  775  1  0.60961850  0.42138350  0.74976600  1
  N  785  1  0.66429800  0.36715500  0.75021300  1
  N  835  1  0.93197600  0.96023400  0.98580700  1
  N  845  1  0.02071550  0.96297150  0.98692800  1
  N  855  1  0.55341800  0.04650100  0.52094400  1
  N  865  1  0.46467250  0.95889400  0.43493450  1
  N  875  1  0.51825550  0.53977500  0.97905550  1
  N  885  1  0.51660750  0.53703150  0.06504500  1
  N  895  1  0.96710800  0.45347000  0.51418100  1
  N  905  1  0.96876150  0.54111700  0.51310850  1
