# generated using pymatgen
data_Cu2P2H9C7(NO3)2
_symmetry_space_group_name_H-M   'P 1'
_cell_length_a   9.54252000
_cell_length_b   9.55400000
_cell_length_c   26.43836265
_cell_angle_alpha   96.43241797
_cell_angle_beta   96.66843496
_cell_angle_gamma   110.54320000
_symmetry_Int_Tables_number   1
_chemical_formula_structural   Cu2P2H9C7(NO3)2
_chemical_formula_sum   'Cu8 P8 H36 C28 N8 O24'
_cell_volume   2211.36226634
_cell_formula_units_Z   4
loop_
 _symmetry_equiv_pos_site_id
 _symmetry_equiv_pos_as_xyz
  1  'x, y, z'
loop_
 _atom_site_type_symbol
 _atom_site_label
 _atom_site_symmetry_multiplicity
 _atom_site_fract_x
 _atom_site_fract_y
 _atom_site_fract_z
 _atom_site_occupancy
  Cu  Cu0  1  0.42984000  0.36745000  0.78437000  1
  Cu  Cu1  1  0.97334000  0.27785000  0.76631000  1
  Cu  Cu2  1  0.58384000  0.64640000  0.21536000  1
  Cu  Cu3  1  0.51075000  0.20755000  0.23305000  1
  Cu  Cu4  1  0.39633000  0.83401000  0.71551000  1
  Cu  Cu5  1  0.95696000  0.76051000  0.73310000  1
  Cu  Cu6  1  0.11842000  0.67984000  0.28436000  1
  Cu  Cu7  1  0.02897000  0.22322000  0.26603000  1
  P  P8  1  0.60369000  0.60784000  0.72591000  1
  P  P9  1  0.18224000  0.61677000  0.76966000  1
  P  P10  1  0.88172000  0.87616000  0.27343000  1
  P  P11  1  0.84842000  0.41156000  0.23002000  1
  P  P12  1  0.62657000  0.13155000  0.77391000  1
  P  P13  1  0.16107000  0.09790000  0.73009000  1
  P  P14  1  0.35885000  0.85371000  0.22564000  1
  P  P15  1  0.36730000  0.43226000  0.26969000  1
  H  H16  1  0.27735000  0.39881000  0.70425000  1
  H  H17  1  0.62684000  0.93207000  0.82180000  1
  H  H18  1  0.55249000  0.05546000  0.85581000  1
  H  H19  1  0.32127000  0.76172000  0.85425000  1
  H  H20  1  0.43909000  0.69953000  0.81577000  1
  H  H21  1  0.53107000  0.75624000  0.62833000  1
  H  H22  1  0.47641000  0.71243000  0.53076000  1
  H  H23  1  0.27937000  0.53488000  0.45776000  1
  H  H24  1  0.21314000  0.50569000  0.36146000  1
  H  H25  1  0.69293000  0.57260000  0.29550000  1
  H  H26  1  0.11143000  0.80655000  0.17899000  1
  H  H27  1  0.20008000  0.69987000  0.14373000  1
  H  H28  1  0.91231000  0.46854000  0.14557000  1
  H  H29  1  0.88590000  0.62285000  0.18399000  1
  H  H30  1  0.12727000  0.90082000  0.37107000  1
  H  H31  1  0.18140000  0.94460000  0.46865000  1
  H  H32  1  0.07829000  0.82292000  0.54278000  1
  H  H33  1  0.14662000  0.85386000  0.63905000  1
  H  H34  1  0.32215000  0.94127000  0.79558000  1
  H  H35  1  0.55586000  0.36180000  0.67873000  1
  H  H36  1  0.44911000  0.45156000  0.64379000  1
  H  H37  1  0.21706000  0.16254000  0.64554000  1
  H  H38  1  0.37224000  0.13631000  0.68388000  1
  H  H39  1  0.65063000  0.37636000  0.87140000  1
  H  H40  1  0.69534000  0.43165000  0.96895000  1
  H  H41  1  0.57301000  0.32854000  0.04303000  1
  H  H42  1  0.60337000  0.39626000  0.13923000  1
  H  H43  1  0.14905000  0.52817000  0.20436000  1
  H  H44  1  0.68234000  0.87629000  0.32138000  1
  H  H45  1  0.80640000  0.80267000  0.35568000  1
  H  H46  1  0.51349000  0.57031000  0.35423000  1
  H  H47  1  0.45048000  0.68809000  0.31578000  1
  H  H48  1  0.50621000  0.78039000  0.12788000  1
  H  H49  1  0.46286000  0.72622000  0.03031000  1
  H  H50  1  0.28485000  0.52933000  0.95742000  1
  H  H51  1  0.25461000  0.46172000  0.86121000  1
  C  C52  1  0.48522000  0.43033000  0.68224000  1
  C  C53  1  0.34831000  0.74546000  0.81528000  1
  C  C54  1  0.43207000  0.76775000  0.60687000  1
  C  C55  1  0.40010000  0.74373000  0.55317000  1
  C  C56  1  0.27229000  0.76476000  0.52845000  1
  C  C57  1  0.24660000  0.61930000  0.44048000  1
  C  C58  1  0.21030000  0.60196000  0.38704000  1
  C  C59  1  0.74692000  0.80187000  0.31743000  1
  C  C60  1  0.93312000  0.53327000  0.18453000  1
  C  C61  1  0.16024000  0.82360000  0.39279000  1
  C  C62  1  0.19019000  0.84581000  0.44650000  1
  C  C63  1  0.23613000  0.74322000  0.47152000  1
  C  C64  1  0.18003000  0.80712000  0.55978000  1
  C  C65  1  0.21671000  0.82469000  0.61320000  1
  C  C66  1  0.55192000  0.99616000  0.81767000  1
  C  C67  1  0.28231000  0.18313000  0.68449000  1
  C  C68  1  0.57341000  0.40949000  0.89297000  1
  C  C69  1  0.59617000  0.44008000  0.94666000  1
  C  C70  1  0.49354000  0.48619000  0.97148000  1
  C  C71  1  0.55727000  0.43010000  0.05988000  1
  C  C72  1  0.57446000  0.46645000  0.11327000  1
  C  C73  1  0.18012000  0.73599000  0.18229000  1
  C  C74  1  0.49668000  0.59761000  0.31527000  1
  C  C75  1  0.51780000  0.68164000  0.10656000  1
  C  C76  1  0.49410000  0.64996000  0.05287000  1
  C  C77  1  0.51517000  0.52241000  0.02837000  1
  C  C78  1  0.36920000  0.49629000  0.94028000  1
  C  C79  1  0.35129000  0.45930000  0.88689000  1
  N  N80  1  0.35501000  0.34649000  0.70607000  1
  N  N81  1  0.34132000  0.80681000  0.63642000  1
  N  N82  1  0.63917000  0.64875000  0.29370000  1
  N  N83  1  0.16939000  0.70310000  0.36351000  1
  N  N84  1  0.39885000  0.88818000  0.79379000  1
  N  N85  1  0.45244000  0.41819000  0.86354000  1
  N  N86  1  0.09673000  0.60579000  0.20620000  1
  N  N87  1  0.55653000  0.59080000  0.13629000  1
  O  O88  1  0.57092000  0.74425000  0.71183000  1
  O  O89  1  0.54047000  0.04581000  0.71960000  1
  O  O90  1  0.79833000  0.15415000  0.78536000  1
  O  O91  1  0.05102000  0.66963000  0.78020000  1
  O  O92  1  0.15197000  0.45527000  0.78284000  1
  O  O93  1  0.22806000  0.63170000  0.71596000  1
  O  O94  1  0.03180000  0.85739000  0.28820000  1
  O  O95  1  0.32698000  0.82199000  0.28017000  1
  O  O96  1  0.36937000  0.01404000  0.21446000  1
  O  O97  1  0.89060000  0.26994000  0.21926000  1
  O  O98  1  0.67394000  0.36946000  0.21692000  1
  O  O99  1  0.91628000  0.50843000  0.28383000  1
  O  O100  1  0.60720000  0.28119000  0.78822000  1
  O  O101  1  0.57329000  0.57375000  0.78035000  1
  O  O102  1  0.76370000  0.61843000  0.71423000  1
  O  O103  1  0.01872000  0.13939000  0.71943000  1
  O  O104  1  0.11908000  0.92377000  0.71705000  1
  O  O105  1  0.25872000  0.16582000  0.78384000  1
  O  O106  1  0.49427000  0.82081000  0.21052000  1
  O  O107  1  0.79554000  0.78926000  0.21929000  1
  O  O108  1  0.90256000  0.04707000  0.28358000  1
  O  O109  1  0.41968000  0.30066000  0.28007000  1
  O  O110  1  0.20579000  0.40195000  0.28298000  1
  O  O111  1  0.38159000  0.47854000  0.21600000  1
