# generated using pymatgen
data_La2H3(C5O4)3
_symmetry_space_group_name_H-M   'P 1'
_cell_length_a   9.24670000
_cell_length_b   10.71500000
_cell_length_c   10.84000000
_cell_angle_alpha   86.19000000
_cell_angle_beta   84.05000000
_cell_angle_gamma   81.42000000
_symmetry_Int_Tables_number   1
_chemical_formula_structural   La2H3(C5O4)3
_chemical_formula_sum   'La4 H6 C30 O24'
_cell_volume   1054.84855855
_cell_formula_units_Z   2
loop_
 _symmetry_equiv_pos_site_id
 _symmetry_equiv_pos_as_xyz
  1  'x, y, z'
loop_
 _atom_site_type_symbol
 _atom_site_label
 _atom_site_symmetry_multiplicity
 _atom_site_fract_x
 _atom_site_fract_y
 _atom_site_fract_z
 _atom_site_occupancy
  La  La1  1  0.53060000  0.73954000  0.71967000  1.0
  La  La2  1  0.47811000  0.82300000  0.31405000  1.0
  La  La3  1  0.46940000  0.26046000  0.28033000  1.0
  La  La4  1  0.52189000  0.17700000  0.68595000  1.0
  H  H1  1  0.04050000  0.09340000  0.80370000  1.0
  H  H2  1  0.07160000  0.86090000  0.66400000  1.0
  H  H3  1  0.01260000  0.65600000  0.34180000  1.0
  H  H4  1  0.95950000  0.90660000  0.19630000  1.0
  H  H5  1  0.92840000  0.13910000  0.33600000  1.0
  H  H6  1  0.98740000  0.34400000  0.65820000  1.0
  C  C1  1  0.28920000  0.98960000  0.86700000  1.0
  C  C2  1  0.14300000  0.99490000  0.94220000  1.0
  C  C3  1  0.02440000  0.05510000  0.88250000  1.0
  C  C4  1  0.88110000  0.05930000  0.93870000  1.0
  C  C5  1  0.75600000  0.11560000  0.86290000  1.0
  C  C6  1  0.78210000  0.87910000  0.65040000  1.0
  C  C7  1  0.89720000  0.94000000  0.57300000  1.0
  C  C8  1  0.04320000  0.91710000  0.59880000  1.0
  C  C9  1  0.14600000  0.97870000  0.52660000  1.0
  C  C10  1  0.30320000  0.96690000  0.55930000  1.0
  C  C11  1  0.28060000  0.54760000  0.36970000  1.0
  C  C12  1  0.13570000  0.51880000  0.43870000  1.0
  C  C13  1  0.00750000  0.59320000  0.40490000  1.0
  C  C14  1  0.87130000  0.57340000  0.46550000  1.0
  C  C15  1  0.73720000  0.65100000  0.42190000  1.0
  C  C16  1  0.71080000  0.01040000  0.13300000  1.0
  C  C17  1  0.85700000  0.00510000  0.05780000  1.0
  C  C18  1  0.97560000  0.94490000  0.11750000  1.0
  C  C19  1  0.11890000  0.94070000  0.06130000  1.0
  C  C20  1  0.24400000  0.88440000  0.13710000  1.0
  C  C21  1  0.21790000  0.12090000  0.34960000  1.0
  C  C22  1  0.10280000  0.06000000  0.42700000  1.0
  C  C23  1  0.95680000  0.08290000  0.40120000  1.0
  C  C24  1  0.85400000  0.02130000  0.47340000  1.0
  C  C25  1  0.69680000  0.03310000  0.44070000  1.0
  C  C26  1  0.71940000  0.45240000  0.63030000  1.0
  C  C27  1  0.86430000  0.48120000  0.56130000  1.0
  C  C28  1  0.99250000  0.40680000  0.59510000  1.0
  C  C29  1  0.12870000  0.42660000  0.53450000  1.0
  C  C30  1  0.26280000  0.34900000  0.57810000  1.0
  O  O1  1  0.38350000  0.85930000  0.54530000  1.0
  O  O2  1  0.62390000  0.67690000  0.49860000  1.0
  O  O3  1  0.62890000  0.09200000  0.89970000  1.0
  O  O4  1  0.78150000  0.17630000  0.76370000  1.0
  O  O5  1  0.34260000  0.06030000  0.59800000  1.0
  O  O6  1  0.34700000  0.08850000  0.84850000  1.0
  O  O7  1  0.73550000  0.68790000  0.31050000  1.0
  O  O8  1  0.80850000  0.76740000  0.69220000  1.0
  O  O9  1  0.65360000  0.94360000  0.66840000  1.0
  O  O10  1  0.34160000  0.63110000  0.40860000  1.0
  O  O11  1  0.32860000  0.48600000  0.27330000  1.0
  O  O12  1  0.33570000  0.88570000  0.81750000  1.0
  O  O13  1  0.61650000  0.14070000  0.45470000  1.0
  O  O14  1  0.37610000  0.32310000  0.50140000  1.0
  O  O15  1  0.37110000  0.90800000  0.10030000  1.0
  O  O16  1  0.21850000  0.82370000  0.23630000  1.0
  O  O17  1  0.65740000  0.93970000  0.40200000  1.0
  O  O18  1  0.65300000  0.91150000  0.15150000  1.0
  O  O19  1  0.26450000  0.31210000  0.68950000  1.0
  O  O20  1  0.19150000  0.23260000  0.30780000  1.0
  O  O21  1  0.34640000  0.05640000  0.33160000  1.0
  O  O22  1  0.65840000  0.36890000  0.59140000  1.0
  O  O23  1  0.67140000  0.51400000  0.72670000  1.0
  O  O24  1  0.66430000  0.11430000  0.18250000  1.0
