# generated using pymatgen
data_H9(C6N)2
_symmetry_space_group_name_H-M   'P 1'
_cell_length_a   24.17790000
_cell_length_b   31.20210000
_cell_length_c   71.42510000
_cell_angle_alpha   89.94640000
_cell_angle_beta   90.01410000
_cell_angle_gamma   90.17950000
_symmetry_Int_Tables_number   1
_chemical_formula_structural   H9(C6N)2
_chemical_formula_sum   'H216 C288 N48'
_cell_volume   53882.89537943
_cell_formula_units_Z   24
loop_
 _symmetry_equiv_pos_site_id
 _symmetry_equiv_pos_as_xyz
  1  'x, y, z'
loop_
 _atom_site_type_symbol
 _atom_site_label
 _atom_site_symmetry_multiplicity
 _atom_site_fract_x
 _atom_site_fract_y
 _atom_site_fract_z
 _atom_site_occupancy
  C  1  1  0.62569000  0.26366450  0.94178200  1
  C  2  1  0.59303600  0.22721900  0.94247000  1
  C  3  1  0.57997000  0.21521050  0.92414900  1
  C  5  1  0.63250200  0.27544800  0.92304100  1
  C  6  1  0.66293400  0.31190550  0.91669900  1
  C  7  1  0.66767800  0.32455400  0.89762400  1
  C  9  1  0.66068800  0.32511050  0.86628000  1
  C  10  1  0.68979700  0.36178300  0.87167900  1
  C  11  1  0.69484800  0.36108850  0.89094300  1
  C  12  1  0.64922700  0.31234950  0.84758550  1
  C  13  1  0.62366400  0.27285300  0.84252950  1
  C  15  1  0.58249100  0.20783550  0.84361150  1
  C  16  1  0.59453600  0.21739500  0.82492550  1
  C  17  1  0.61880300  0.25744300  0.82423150  1
  C  18  1  0.55660200  0.16943100  0.84995750  1
  C  19  1  0.54440000  0.16012450  0.86899600  1
  C  21  1  0.53997700  0.16442750  0.90032000  1
  C  22  1  0.51309900  0.12678300  0.89479000  1
  C  23  1  0.51617200  0.12398900  0.87553700  1
  C  24  1  0.54845800  0.17827900  0.91907700  1
  C  25  1  0.52646200  0.15152900  0.93360700  1
  C  26  1  0.46948800  0.15225750  0.93805600  1
  C  27  1  0.44680600  0.12278100  0.95094900  1
  C  28  1  0.48026800  0.09151000  0.95980400  1
  C  29  1  0.53742700  0.09129450  0.95536500  1
  C  30  1  0.56010200  0.12054200  0.94240800  1
  C  31  1  0.54553400  0.13667350  0.83648150  1
  C  32  1  0.50073000  0.13963200  0.82382850  1
  C  33  1  0.49193400  0.10762850  0.81021850  1
  C  34  1  0.52737600  0.07169150  0.80907000  1
  C  35  1  0.57167000  0.06861500  0.82194050  1
  C  36  1  0.58088800  0.10079700  0.83536000  1
  C  37  1  0.66673233  0.33999800  0.83277850  1
  C  38  1  0.71940000  0.33515000  0.82447350  1
  C  39  1  0.73477300  0.36025650  0.80891150  1
  C  40  1  0.69817000  0.39089800  0.80113250  1
  C  41  1  0.64565400  0.39575100  0.80970900  1
  C  42  1  0.63011800  0.37062200  0.82524450  1
  C  43  1  0.69488100  0.33549750  0.93008800  1
  C  44  1  0.74902500  0.32181250  0.93437100  1
  C  45  1  0.67544600  0.37370300  0.93839900  1
  C  46  1  0.70947000  0.39759950  0.95065800  1
  C  47  1  0.76402000  0.38415700  0.95496500  1
  C  48  1  0.78279600  0.34564800  0.94660000  1
  C  75  1  0.52019600  0.03974950  0.79579950  1
  C  76  1  0.71427900  0.41464000  0.78544950  1
  C  77  1  0.79969200  0.40690900  0.96682000  1
  C  78  1  0.45916600  0.06141600  0.97246900  1
  C  83  1  0.62119400  0.73097100  0.55228350  1
  C  84  1  0.58844000  0.76723000  0.55188150  1
  C  85  1  0.57595800  0.77873900  0.57030100  1
  C  87  1  0.62847800  0.71867500  0.57093850  1
  C  88  1  0.65919500  0.68223600  0.57699450  1
  C  89  1  0.66391000  0.66870500  0.59595500  1
  C  91  1  0.65601500  0.66627900  0.62725750  1
  C  92  1  0.68675400  0.63077250  0.62161600  1
  C  93  1  0.69227200  0.63259650  0.60238300  1
  C  94  1  0.64331800  0.67759400  0.64602600  1
  C  95  1  0.61631300  0.71619700  0.65140950  1
  C  97  1  0.57518900  0.78111300  0.65092300  1
  C  98  1  0.58390800  0.76945000  0.66958300  1
  C  99  1  0.60772100  0.72934700  0.66988850  1
  C  100  1  0.55070400  0.82022600  0.64491750  1
  C  101  1  0.53993400  0.83098200  0.62592050  1
  C  103  1  0.53644900  0.82855000  0.59452350  1
  C  104  1  0.51067200  0.86627200  0.60036650  1
  C  105  1  0.51315200  0.86790300  0.61966050  1
  C  106  1  0.54487600  0.81554900  0.57565050  1
  C  107  1  0.52324000  0.84298200  0.56131450  1
  C  108  1  0.46623800  0.84273900  0.55687050  1
  C  109  1  0.44410200  0.87248700  0.54402350  1
  C  110  1  0.47813300  0.90358900  0.53519900  1
  C  111  1  0.53529000  0.90338200  0.53966850  1
  C  112  1  0.55744200  0.87382300  0.55255650  1
  C  113  1  0.54032400  0.85233100  0.65874100  1
  C  114  1  0.49497900  0.84961700  0.67120050  1
  C  115  1  0.48681800  0.88120100  0.68503700  1
  C  116  1  0.52344800  0.91647900  0.68654400  1
  C  117  1  0.56847200  0.91925100  0.67396700  1
  C  118  1  0.57711200  0.88740800  0.66037750  1
  C  119  1  0.66012700  0.64901450  0.66058950  1
  C  120  1  0.70771500  0.65776600  0.67144550  1
  C  121  1  0.71930000  0.63348100  0.68760000  1
  C  122  1  0.68425600  0.59934700  0.69314750  1
  C  123  1  0.63776800  0.58969300  0.68182650  1
  C  124  1  0.62570500  0.61433900  0.66581150  1
  C  125  1  0.69122600  0.65945800  0.56341650  1
  C  126  1  0.74448500  0.67465650  0.55869300  1
  C  127  1  0.67306400  0.62033650  0.55551050  1
  C  128  1  0.70742200  0.59704950  0.54320900  1
  C  129  1  0.76107100  0.61203450  0.53845750  1
  C  130  1  0.77859800  0.65143200  0.54641250  1
  C  157  1  0.51565500  0.94903400  0.69940750  1
  C  158  1  0.69251900  0.57921650  0.71026900  1
  C  159  1  0.79694600  0.58998000  0.52650150  1
  C  160  1  0.45766400  0.93384800  0.52250850  1
  C  165  1  0.06827800  0.73268400  0.05320800  1
  C  166  1  0.10191000  0.76858300  0.05239850  1
  C  167  1  0.11611500  0.78022200  0.07066900  1
  C  169  1  0.06214400  0.72081600  0.07196450  1
  C  170  1  0.03114000  0.68480200  0.07844050  1
  C  171  1  0.02655400  0.67231600  0.09754250  1
  C  173  1  0.03393200  0.67189650  0.12887250  1
  C  174  1  0.00446800  0.63532900  0.12356050  1
  C  175  1  0.99928000  0.63589700  0.10430150  1
  C  176  1  0.04564200  0.68475000  0.14753450  1
  C  177  1  0.07192200  0.72402100  0.15248950  1
  C  179  1  0.11433800  0.78852100  0.15121900  1
  C  180  1  0.10202800  0.77942300  0.16992950  1
  C  181  1  0.07707500  0.73963500  0.17074300  1
  C  182  1  0.14107200  0.82646800  0.14475450  1
  C  183  1  0.15344600  0.83532400  0.12568850  1
  C  185  1  0.15761400  0.83058100  0.09437250  1
  C  186  1  0.18552600  0.86784600  0.09980750  1
  C  187  1  0.18268000  0.87088900  0.11905650  1
  C  188  1  0.14865800  0.81666700  0.07564800  1
  C  189  1  0.17033800  0.84336100  0.06105500  1
  C  190  1  0.22686600  0.84171900  0.05604850  1
  C  191  1  0.24954400  0.87161900  0.04333250  1
  C  192  1  0.21657700  0.90430500  0.03525550  1
  C  193  1  0.15978400  0.90525500  0.04021150  1
  C  194  1  0.13707600  0.87551200  0.05293050  1
  C  195  1  0.15271800  0.85932300  0.15812350  1
  C  196  1  0.19743800  0.85607700  0.17079650  1
  C  197  1  0.20670200  0.88815200  0.18433650  1
  C  198  1  0.17181400  0.92443000  0.18540200  1
  C  199  1  0.12762400  0.92779000  0.17250450  1
  C  200  1  0.11795000  0.89555500  0.15914550  1
  C  201  1  0.02787900  0.65734000  0.16239600  1
  C  202  1  0.97551900  0.66271350  0.17080950  1
  C  203  1  0.95990100  0.63759850  0.18634100  1
  C  204  1  0.99602600  0.60644500  0.19398650  1
  C  205  1  0.04832200  0.60110450  0.18531050  1
  C  206  1  0.06410000  0.62622950  0.16980350  1
  C  207  1  0.99891200  0.66112000  0.06517150  1
  C  208  1  0.94325000  0.67266150  0.06201850  1
  C  209  1  0.01955200  0.62401700  0.05627650  1
  C  210  1  0.98505500  0.59881950  0.04470150  1
  C  211  1  0.92886500  0.60981700  0.04173100  1
  C  212  1  0.90891700  0.64744550  0.05050550  1
  C  239  1  0.17938000  0.95640000  0.19863750  1
  C  240  1  0.97968000  0.58264900  0.20962500  1
  C  241  1  0.89229300  0.58434550  0.03141500  1
  C  242  1  0.23788000  0.93567800  0.02319150  1
  C  247  1  0.07203400  0.26345150  0.44186350  1
  C  248  1  0.10559300  0.22764000  0.44236150  1
  C  249  1  0.11968400  0.21682500  0.42399350  1
  C  251  1  0.06576300  0.27607800  0.42321150  1
  C  252  1  0.03461800  0.31217000  0.41704750  1
  C  253  1  0.03026400  0.32573400  0.39807900  1
  C  255  1  0.03866000  0.32826050  0.36679700  1
  C  256  1  0.00788800  0.36378000  0.37239850  1
  C  257  1  0.00207200  0.36190050  0.39161850  1
  C  258  1  0.05155600  0.31693900  0.34804650  1
  C  259  1  0.07899400  0.27848500  0.34272550  1
  C  261  1  0.12140500  0.21408750  0.34334450  1
  C  262  1  0.11209400  0.22530000  0.32466400  1
  C  263  1  0.08741600  0.26508400  0.32427400  1
  C  264  1  0.14700200  0.17547950  0.34943850  1
  C  265  1  0.15810000  0.16514000  0.36845750  1
  C  267  1  0.16127600  0.16783300  0.39985500  1
  C  268  1  0.18845000  0.13065500  0.39407400  1
  C  269  1  0.18613400  0.12884000  0.37478050  1
  C  270  1  0.15209600  0.18068050  0.41871000  1
  C  271  1  0.17333600  0.15318550  0.43308000  1
  C  272  1  0.22980200  0.15446050  0.43821600  1
  C  273  1  0.25187200  0.12410700  0.45081200  1
  C  274  1  0.21833600  0.09132150  0.45866150  1
  C  275  1  0.16162800  0.09070100  0.45355850  1
  C  276  1  0.13952400  0.12089450  0.44095750  1
  C  277  1  0.15812000  0.14335750  0.33569150  1
  C  278  1  0.20321600  0.14665950  0.32315450  1
  C  279  1  0.21196400  0.11510250  0.30934850  1
  C  280  1  0.17622400  0.07925550  0.30796550  1
  C  281  1  0.13147200  0.07588750  0.32062650  1
  C  282  1  0.12223400  0.10769800  0.33418350  1
  C  283  1  0.03465200  0.34540700  0.33345750  1
  C  284  1  0.98719100  0.33646050  0.32256700  1
  C  285  1  0.97537000  0.36086600  0.30646650  1
  C  286  1  0.01001200  0.39533100  0.30101850  1
  C  287  1  0.05640800  0.40511300  0.31236250  1
  C  288  1  0.06866200  0.38040200  0.32833850  1
  C  289  1  0.00225800  0.33498250  0.43050650  1
  C  290  1  0.94719100  0.32200850  0.43396750  1
  C  291  1  0.02178000  0.37297000  0.43905550  1
  C  292  1  0.98675100  0.39764450  0.45058050  1
  C  293  1  0.93107300  0.38527600  0.45380000  1
  C  294  1  0.91228000  0.34674900  0.44540450  1
  C  321  1  0.18448800  0.04681400  0.29508450  1
  C  322  1  0.00153400  0.41567600  0.28396150  1
  C  323  1  0.89382300  0.41034750  0.46392350  1
  C  324  1  0.23898400  0.05957100  0.47063950  1
  C  329  1  0.68621600  0.46240100  0.76085950  1
  C  330  1  0.71732800  0.45086500  0.74481450  1
  C  331  1  0.71748000  0.47749700  0.72867350  1
  C  332  1  0.68694800  0.51601750  0.72833950  1
  C  333  1  0.65544000  0.52701100  0.74427650  1
  C  334  1  0.65492400  0.50048250  0.76022500  1
  C  336  1  0.77742000  0.42786000  0.71290350  1
  C  337  1  0.77704300  0.40099050  0.72897950  1
  C  341  1  0.80935300  0.41974750  0.69551650  1
  C  342  1  0.86870200  0.43806350  0.69667100  1
  C  348  1  0.80561500  0.35909300  0.73055150  1
  C  349  1  0.76930400  0.32172750  0.72338300  1
  C  357  1  0.50681600  0.96859000  0.73147750  1
  C  358  1  0.47723600  0.95635100  0.74772150  1
  C  359  1  0.47628800  0.98324700  0.76375400  1
  C  360  1  0.50583200  0.02253050  0.76389900  1
  C  361  1  0.53461000  0.03485400  0.74759200  1
  C  362  1  0.53566100  0.00815800  0.73174500  1
  C  364  1  0.41772600  0.93241000  0.77964300  1
  C  365  1  0.41891000  0.90536000  0.76365000  1
  C  369  1  0.38623000  0.92380400  0.79709950  1
  C  370  1  0.32643200  0.94094100  0.79600300  1
  C  376  1  0.39144600  0.86285500  0.76225150  1
  C  377  1  0.42852200  0.82638300  0.76970900  1
  C  385  1  0.00725900  0.53375150  0.23387900  1
  C  386  1  0.97655700  0.54507600  0.25004200  1
  C  387  1  0.97641900  0.51803450  0.26605300  1
  C  388  1  0.00654400  0.47931600  0.26613650  1
  C  389  1  0.03763000  0.46852150  0.25007850  1
  C  390  1  0.03813400  0.49544750  0.23425900  1
  C  392  1  0.91732500  0.56765200  0.28219850  1
  C  393  1  0.91767900  0.59492400  0.26625250  1
  C  397  1  0.88583700  0.57553400  0.29969850  1
  C  398  1  0.82627300  0.55761950  0.29859950  1
  C  404  1  0.88951800  0.63703500  0.26494650  1
  C  405  1  0.92637400  0.67399550  0.27219750  1
  C  413  1  0.19288800  0.02737600  0.26300100  1
  C  414  1  0.22209800  0.03983400  0.24671200  1
  C  415  1  0.22305200  0.01298700  0.23066550  1
  C  416  1  0.19386400  0.97354100  0.23055150  1
  C  417  1  0.16548600  0.96099800  0.24690850  1
  C  418  1  0.16444000  0.98763900  0.26277200  1
  C  420  1  0.28084800  0.06422150  0.21469650  1
  C  421  1  0.27964800  0.09122050  0.23070500  1
  C  425  1  0.31194000  0.07307850  0.19718050  1
  C  426  1  0.37193200  0.05631200  0.19814300  1
  C  432  1  0.30669200  0.13388900  0.23207450  1
  C  433  1  0.26908200  0.17015300  0.22473450  1
  C  441  1  0.81801800  0.47048650  0.98505700  1
  C  442  1  0.80008600  0.51341000  0.98695300  1
  C  443  1  0.82949900  0.54301900  0.99837100  1
  C  444  1  0.87716300  0.53015150  0.00846350  1
  C  445  1  0.89513400  0.48744800  0.00642450  1
  C  446  1  0.86595500  0.45810800  0.99510700  1
  C  448  1  0.76509500  0.59850650  0.98989500  1
  C  449  1  0.73541000  0.56883550  0.97861400  1
  C  453  1  0.75195800  0.64468200  0.99211500  1
  C  454  1  0.78740900  0.67307500  0.97904100  1
  C  460  1  0.68493300  0.57888050  0.96764100  1
  C  461  1  0.63186000  0.57551800  0.97960900  1
  C  469  1  0.81773700  0.52517000  0.50939300  1
  C  470  1  0.79993600  0.48209700  0.50762200  1
  C  471  1  0.82966900  0.45241650  0.49641150  1
  C  472  1  0.87760600  0.46533950  0.48643250  1
  C  473  1  0.89550400  0.50816850  0.48838050  1
  C  474  1  0.86602200  0.53757300  0.49949450  1
  C  476  1  0.76509700  0.39675050  0.50490550  1
  C  477  1  0.73509700  0.42648650  0.51597750  1
  C  481  1  0.75198800  0.35047800  0.50280850  1
  C  482  1  0.78639900  0.32254900  0.51632150  1
  C  488  1  0.68429700  0.41640400  0.52680650  1
  C  489  1  0.63155700  0.41959450  0.51466600  1
  C  497  1  0.38011000  0.97116700  0.50966950  1
  C  498  1  0.39775000  0.01409400  0.50691050  1
  C  499  1  0.36683200  0.04253450  0.49542750  1
  C  500  1  0.31721200  0.02908150  0.48669050  1
  C  501  1  0.29971600  0.98625000  0.48965550  1
  C  502  1  0.33025800  0.95807000  0.50109250  1
  C  504  1  0.43270700  0.09880250  0.50163550  1
  C  505  1  0.46314800  0.07058500  0.51334450  1
  C  509  1  0.44594200  0.14468750  0.49833750  1
  C  510  1  0.41403700  0.17430550  0.51184300  1
  C  516  1  0.51480800  0.08175650  0.52348650  1
  C  517  1  0.56669000  0.07580900  0.51114650  1
  C  525  1  0.38092000  0.02407950  0.98490200  1
  C  526  1  0.39804800  0.98112200  0.98766800  1
  C  527  1  0.36661000  0.95272500  0.99906600  1
  C  528  1  0.31699000  0.96629000  0.00768450  1
  C  529  1  0.30005200  0.00917400  0.00473550  1
  C  530  1  0.33112000  0.03731650  0.99338900  1
  C  532  1  0.43190800  0.89632700  0.99296100  1
  C  533  1  0.46289000  0.92451600  0.98133700  1
  C  537  1  0.44461400  0.85042100  0.99627100  1
  C  538  1  0.41326000  0.82090400  0.98250800  1
  C  544  1  0.51463800  0.91328200  0.97132200  1
  C  545  1  0.56634800  0.91938300  0.98376200  1
  H  49  1  0.82193500  0.33461200  0.94915300  1
  H  50  1  0.76462300  0.29458950  0.92839600  1
  H  51  1  0.69405000  0.42522500  0.95629500  1
  H  52  1  0.63661700  0.38466500  0.93536000  1
  H  53  1  0.64106700  0.27910750  0.95328200  1
  H  54  1  0.58185200  0.21184800  0.95453500  1
  H  55  1  0.60125000  0.24572600  0.89971900  1
  H  56  1  0.59698900  0.24476250  0.86687800  1
  H  57  1  0.71483700  0.38397850  0.89863800  1
  H  58  1  0.70654500  0.38470400  0.86314300  1
  H  59  1  0.74640300  0.31265100  0.82945750  1
  H  60  1  0.77296500  0.35535250  0.80311350  1
  H  61  1  0.59146400  0.37438150  0.83084750  1
  H  62  1  0.61771900  0.41739000  0.80461000  1
  H  63  1  0.63225000  0.27184950  0.81220350  1
  H  64  1  0.58706400  0.19878000  0.81343400  1
  H  65  1  0.49548000  0.10404150  0.90321000  1
  H  66  1  0.50001200  0.09947100  0.86776800  1
  H  67  1  0.47463400  0.16536850  0.82431350  1
  H  68  1  0.45931000  0.11074450  0.80118750  1
  H  69  1  0.61385900  0.09794000  0.84427050  1
  H  70  1  0.59835500  0.04320250  0.82146950  1
  H  71  1  0.60125100  0.11852000  0.93916300  1
  H  72  1  0.56319200  0.06904450  0.96125200  1
  H  73  1  0.40530200  0.12419650  0.95366600  1
  H  74  1  0.44383900  0.17373000  0.93160300  1
  H  79  1  0.52881200  0.00963800  0.79937900  1
  H  80  1  0.75357900  0.41356150  0.78135800  1
  H  81  1  0.83630100  0.39400700  0.96961500  1
  H  82  1  0.48566800  0.04599550  0.98072600  1
  H  131  1  0.81709100  0.66355150  0.54353800  1
  H  132  1  0.75924500  0.70252200  0.56441050  1
  H  133  1  0.69292000  0.56875200  0.53786450  1
  H  134  1  0.63495900  0.60824750  0.55889650  1
  H  135  1  0.63621500  0.71589600  0.54065750  1
  H  136  1  0.57715600  0.78298200  0.53993200  1
  H  137  1  0.59840000  0.74785600  0.59450750  1
  H  138  1  0.59505700  0.74749600  0.62721500  1
  H  139  1  0.71355600  0.61076700  0.59455950  1
  H  140  1  0.70426600  0.60796750  0.62999350  1
  H  141  1  0.73253100  0.68338300  0.66824300  1
  H  142  1  0.75270700  0.64191250  0.69562600  1
  H  143  1  0.59021600  0.60802350  0.65848100  1
  H  144  1  0.61047400  0.56616550  0.68571150  1
  H  145  1  0.61903000  0.71373600  0.68186500  1
  H  146  1  0.57442000  0.78665800  0.68130450  1
  H  147  1  0.49388300  0.88965300  0.59212750  1
  H  148  1  0.49739000  0.89214100  0.62763900  1
  H  149  1  0.46782200  0.82447100  0.67033350  1
  H  150  1  0.45352000  0.87855200  0.69381600  1
  H  151  1  0.61045200  0.89012800  0.65161300  1
  H  152  1  0.59578600  0.94436900  0.67466850  1
  H  153  1  0.59865500  0.87548500  0.55577550  1
  H  154  1  0.56151200  0.92544600  0.53379200  1
  H  155  1  0.40258000  0.87134000  0.54128650  1
  H  156  1  0.44019800  0.82131400  0.56324950  1
  H  161  1  0.51867000  0.97910900  0.69487150  1
  H  162  1  0.70494500  0.59692600  0.72109050  1
  H  163  1  0.83182900  0.60458300  0.52278700  1
  H  164  1  0.48460200  0.94940000  0.51442350  1
  H  213  1  0.86852800  0.65655550  0.04889750  1
  H  214  1  0.92681000  0.69893700  0.06852050  1
  H  215  1  0.00103600  0.57155750  0.03890450  1
  H  216  1  0.05938600  0.61441100  0.05862900  1
  H  217  1  0.05175800  0.71768500  0.04177650  1
  H  218  1  0.11259600  0.78408200  0.04031300  1
  H  219  1  0.09560400  0.74964300  0.09515650  1
  H  220  1  0.09921300  0.75139900  0.12806150  1
  H  221  1  0.97912900  0.61299950  0.09665650  1
  H  222  1  0.98770800  0.61250750  0.13214250  1
  H  223  1  0.94882100  0.68550300  0.16589150  1
  H  224  1  0.92187700  0.64284400  0.19220750  1
  H  225  1  0.10256400  0.62205500  0.16411050  1
  H  226  1  0.07592600  0.57909150  0.19031000  1
  H  227  1  0.06312000  0.72565600  0.18280200  1
  H  228  1  0.10977400  0.79816200  0.18136150  1
  H  229  1  0.20403400  0.89006000  0.09133550  1
  H  230  1  0.19961800  0.89518800  0.12676800  1
  H  231  1  0.22310400  0.83007400  0.17038250  1
  H  232  1  0.23923200  0.88481500  0.19339100  1
  H  233  1  0.08502400  0.89860600  0.15022800  1
  H  234  1  0.10130800  0.95343800  0.17292150  1
  H  235  1  0.09633000  0.87824100  0.05662950  1
  H  236  1  0.13431400  0.92846500  0.03491950  1
  H  237  1  0.29086200  0.86976700  0.04035700  1
  H  238  1  0.25230600  0.81945000  0.06206500  1
  H  243  1  0.17076000  0.98651200  0.19506500  1
  H  244  1  0.94053600  0.58428400  0.21384550  1
  H  245  1  0.85195500  0.58790750  0.03372300  1
  H  246  1  0.21180600  0.95697700  0.01779400  1
  H  295  1  0.87225900  0.33668450  0.44718550  1
  H  296  1  0.93146100  0.29516750  0.42764550  1
  H  297  1  0.00181200  0.42564400  0.45604900  1
  H  298  1  0.06108100  0.38365900  0.43643100  1
  H  299  1  0.05567600  0.27793800  0.45342500  1
  H  300  1  0.11643800  0.21174250  0.45432050  1
  H  301  1  0.09872300  0.24822900  0.39976700  1
  H  302  1  0.10157600  0.24798600  0.36697850  1
  H  303  1  0.98072500  0.38374100  0.39941850  1
  H  304  1  0.99041600  0.38656100  0.36399750  1
  H  305  1  0.96268000  0.31061750  0.32568900  1
  H  306  1  0.94212000  0.35227950  0.29839850  1
  H  307  1  0.10405000  0.38688800  0.33569750  1
  H  308  1  0.08337400  0.42893800  0.30856250  1
  H  309  1  0.07582200  0.28044200  0.31226650  1
  H  310  1  0.12186800  0.20805550  0.31298000  1
  H  311  1  0.20613600  0.10774250  0.40234800  1
  H  312  1  0.20287600  0.10493800  0.36684050  1
  H  313  1  0.22969000  0.17225550  0.32391850  1
  H  314  1  0.24502600  0.11820650  0.30049550  1
  H  315  1  0.08907400  0.10455800  0.34300050  1
  H  316  1  0.10477800  0.05036400  0.32000550  1
  H  317  1  0.09878000  0.11845400  0.43718850  1
  H  318  1  0.13573200  0.06746250  0.45868550  1
  H  319  1  0.29315000  0.12576350  0.45390200  1
  H  320  1  0.25562800  0.17686150  0.43240050  1
  H  325  1  0.18232400  0.01669750  0.29962450  1
  H  326  1  0.98940300  0.39806100  0.27307400  1
  H  327  1  0.85360200  0.40590050  0.46162000  1
  H  328  1  0.21264600  0.03781450  0.47560950  1
  H  339  1  0.63082200  0.50906150  0.77138950  1
  H  340  1  0.63126400  0.55387050  0.74415350  1
  H  343  1  0.78838800  0.43474350  0.68363650  1
  H  344  1  0.81114400  0.38549750  0.69251400  1
  H  345  1  0.86766000  0.47271100  0.69879850  1
  H  346  1  0.89063500  0.43153350  0.68362900  1
  H  347  1  0.89158100  0.42338600  0.70817250  1
  H  350  1  0.81594700  0.35292150  0.74521750  1
  H  351  1  0.84462700  0.35959650  0.72287750  1
  H  352  1  0.75872100  0.32620150  0.70865550  1
  H  353  1  0.73117500  0.31947750  0.73152700  1
  H  354  1  0.79174800  0.29159750  0.72481250  1
  H  367  1  0.55901300  0.01751700  0.72052350  1
  H  368  1  0.55685000  0.06283900  0.74735250  1
  H  371  1  0.40699800  0.93928900  0.80891250  1
  H  372  1  0.38528800  0.88955700  0.80018450  1
  H  373  1  0.32658400  0.97557950  0.79378250  1
  H  374  1  0.30486200  0.93410700  0.80910050  1
  H  375  1  0.30376200  0.92569800  0.78457950  1
  H  378  1  0.38157800  0.85609900  0.74760150  1
  H  379  1  0.35226600  0.86279000  0.76983250  1
  H  380  1  0.43875400  0.83141750  0.78442850  1
  H  381  1  0.46683400  0.82466700  0.76165050  1
  H  382  1  0.40683200  0.79579300  0.76840950  1
  H  395  1  0.06195400  0.48700250  0.22300550  1
  H  396  1  0.06155600  0.44152700  0.25002200  1
  H  399  1  0.90688300  0.56011100  0.31145750  1
  H  400  1  0.88446900  0.60971700  0.30286750  1
  H  401  1  0.82690400  0.52302050  0.29630550  1
  H  402  1  0.80468000  0.56396400  0.31172450  1
  H  403  1  0.80331600  0.57272950  0.28722300  1
  H  406  1  0.87893900  0.64362800  0.25033550  1
  H  407  1  0.85066700  0.63659000  0.27271450  1
  H  408  1  0.93722300  0.66909300  0.28687700  1
  H  409  1  0.96435100  0.67620500  0.26396950  1
  H  410  1  0.90421900  0.70429800  0.27096550  1
  H  423  1  0.14133800  0.97813400  0.27402950  1
  H  424  1  0.14349200  0.93289900  0.24717150  1
  H  427  1  0.29112000  0.05750050  0.18540000  1
  H  428  1  0.31246400  0.10733900  0.19411500  1
  H  429  1  0.37218000  0.02166900  0.20034150  1
  H  430  1  0.39319600  0.06332450  0.18500550  1
  H  431  1  0.39464800  0.07166100  0.20952950  1
  H  434  1  0.31679400  0.14064200  0.24670750  1
  H  435  1  0.34571400  0.13423650  0.22440100  1
  H  436  1  0.25860100  0.16510950  0.21003550  1
  H  437  1  0.23091400  0.17159200  0.23288450  1
  H  438  1  0.29047400  0.20087400  0.22600750  1
  H  451  1  0.88027900  0.42740000  0.99437100  1
  H  452  1  0.92958900  0.47713000  0.01342000  1
  H  455  1  0.75956500  0.65419000  0.00662500  1
  H  456  1  0.70840300  0.65098750  0.98931600  1
  H  457  1  0.77971500  0.66484700  0.96441000  1
  H  458  1  0.83137000  0.66897050  0.98204500  1
  H  459  1  0.77681900  0.70671800  0.98112900  1
  H  462  1  0.68107400  0.55640450  0.95596500  1
  H  463  1  0.68812400  0.61084750  0.96149300  1
  H  464  1  0.62682400  0.54296300  0.98499100  1
  H  465  1  0.59590100  0.58328100  0.97102100  1
  H  466  1  0.63328300  0.59771100  0.99139800  1
  H  479  1  0.88051700  0.56829550  0.50023150  1
  H  480  1  0.93021800  0.51851200  0.48149650  1
  H  483  1  0.76063500  0.34058950  0.48842150  1
  H  484  1  0.70820800  0.34414150  0.50525750  1
  H  485  1  0.77768500  0.33113150  0.53084150  1
  H  486  1  0.83057200  0.32672500  0.51366550  1
  H  487  1  0.77586500  0.28881900  0.51431300  1
  H  490  1  0.68026400  0.43893600  0.53844650  1
  H  491  1  0.68714600  0.38447400  0.53299450  1
  H  492  1  0.62683200  0.45210350  0.50922350  1
  H  493  1  0.59533100  0.41183100  0.52314950  1
  H  494  1  0.63318300  0.39731650  0.50291350  1
  H  507  1  0.31605000  0.92740500  0.50291950  1
  H  508  1  0.26457800  0.97497100  0.48338250  1
  H  511  1  0.43508400  0.15315150  0.48394050  1
  H  512  1  0.49015600  0.15081700  0.49983650  1
  H  513  1  0.42482400  0.16715750  0.52635950  1
  H  514  1  0.36946500  0.17027950  0.51003500  1
  H  515  1  0.42467900  0.20769100  0.50896150  1
  H  518  1  0.51904600  0.06118450  0.53581150  1
  H  519  1  0.51307600  0.11467200  0.52862050  1
  H  520  1  0.57031200  0.04244500  0.50670850  1
  H  521  1  0.60361200  0.08435950  0.51912750  1
  H  522  1  0.56482200  0.09619450  0.49874050  1
  H  535  1  0.31733400  0.06802800  0.99155400  1
  H  536  1  0.26495400  0.02049850  0.01095850  1
  H  539  1  0.43286400  0.84181000  0.01057550  1
  H  540  1  0.48887400  0.84435300  0.99506550  1
  H  541  1  0.42489400  0.82817100  0.96807500  1
  H  542  1  0.36862600  0.82489900  0.98403200  1
  H  543  1  0.42349600  0.78749800  0.98540500  1
  H  546  1  0.51921200  0.93373400  0.95896700  1
  H  547  1  0.51279200  0.88031400  0.96624900  1
  H  548  1  0.57011800  0.95278700  0.98815500  1
  H  549  1  0.60335100  0.91079700  0.97587400  1
  H  550  1  0.56412300  0.89909600  0.99619500  1
  N  4  1  0.60400500  0.24551350  0.91312800  1
  N  8  1  0.64807700  0.30407350  0.88230100  1
  N  14  1  0.60063800  0.24217250  0.85353700  1
  N  20  1  0.55772200  0.18330250  0.88434900  1
  N  86  1  0.60024500  0.74820300  0.58108550  1
  N  90  1  0.64306200  0.68779100  0.61140250  1
  N  96  1  0.59503800  0.74799300  0.64065050  1
  N  102  1  0.55288800  0.80846300  0.61036150  1
  N  168  1  0.09192400  0.75016800  0.08177200  1
  N  172  1  0.04643000  0.69282800  0.11281500  1
  N  178  1  0.09557600  0.75424000  0.14139450  1
  N  184  1  0.13945600  0.81216900  0.11039450  1
  N  250  1  0.09543000  0.24725500  0.41315400  1
  N  254  1  0.05131200  0.30667100  0.38266050  1
  N  260  1  0.10100200  0.24710950  0.35354750  1
  N  266  1  0.14424000  0.18746850  0.38398150  1
  N  335  1  0.74760700  0.46471350  0.71364700  1
  N  338  1  0.74664700  0.41387450  0.74396450  1
  N  355  1  0.68034000  0.43804850  0.77608550  1
  N  356  1  0.68341600  0.53892600  0.71263650  1
  N  363  1  0.44635200  0.96993600  0.77876050  1
  N  366  1  0.44875400  0.91878500  0.74858050  1
  N  383  1  0.50996000  0.94147600  0.71702250  1
  N  384  1  0.50960800  0.04869000  0.77858600  1
  N  391  1  0.94672500  0.53063150  0.28120850  1
  N  394  1  0.94765300  0.58222950  0.25113950  1
  N  411  1  0.01320000  0.55842300  0.21875750  1
  N  412  1  0.01019200  0.45606600  0.28173850  1
  N  419  1  0.25261200  0.02652450  0.21561150  1
  N  422  1  0.25017600  0.07757600  0.24582150  1
  N  439  1  0.18953800  0.05446250  0.27745500  1
  N  440  1  0.18993800  0.94743700  0.21585050  1
  N  447  1  0.81067500  0.58393550  0.99901300  1
  N  450  1  0.75469200  0.52797000  0.97772900  1
  N  467  1  0.78908400  0.44403000  0.97385900  1
  N  468  1  0.90755900  0.55619700  0.01929000  1
  N  475  1  0.81089200  0.41138800  0.49587350  1
  N  478  1  0.75430700  0.46747600  0.51675600  1
  N  495  1  0.78853700  0.55158100  0.52045800  1
  N  496  1  0.90840000  0.43932200  0.47580400  1
  N  503  1  0.38591200  0.08330250  0.49348050  1
  N  506  1  0.44394000  0.02982300  0.51529000  1
  N  523  1  0.40591400  0.94286300  0.52073150  1
  N  524  1  0.29003900  0.05690150  0.47571700  1
  N  531  1  0.38516800  0.91190600  0.00103250  1
  N  534  1  0.44421000  0.96533300  0.97938000  1
  N  551  1  0.40730400  0.05232100  0.97393900  1
  N  552  1  0.28932000  0.93860200  0.01861050  1
