# generated using pymatgen
data_H28C41N8
_symmetry_space_group_name_H-M   'P 1'
_cell_length_a   17.75760000
_cell_length_b   17.75760000
_cell_length_c   35.31570000
_cell_angle_alpha   89.99790000
_cell_angle_beta   90.00210000
_cell_angle_gamma   90.00000000
_symmetry_Int_Tables_number   1
_chemical_formula_structural   H28C41N8
_chemical_formula_sum   'H56 C82 N16'
_cell_volume   11136.18293198
_cell_formula_units_Z   2
loop_
 _symmetry_equiv_pos_site_id
 _symmetry_equiv_pos_as_xyz
  1  'x, y, z'
loop_
 _atom_site_type_symbol
 _atom_site_label
 _atom_site_symmetry_multiplicity
 _atom_site_fract_x
 _atom_site_fract_y
 _atom_site_fract_z
 _atom_site_occupancy
  C  1  1  0.89919700  0.90891500  0.98822300  1
  C  2  1  0.89974500  0.82906700  0.98825900  1
  C  3  1  0.04220200  0.82716900  0.98777000  1
  C  4  1  0.04516400  0.90699300  0.98760500  1
  C  5  1  0.11783000  0.94177200  0.98738700  1
  C  6  1  0.18616800  0.89986900  0.98735000  1
  C  7  1  0.17979800  0.82040400  0.98745200  1
  C  8  1  0.10942800  0.78483000  0.98764800  1
  C  9  1  0.83123900  0.78874500  0.98833900  1
  C  10  1  0.76190400  0.82641500  0.98827400  1
  C  11  1  0.75808500  0.90600100  0.98816900  1
  C  12  1  0.82762300  0.94578700  0.98819400  1
  C  13  1  0.97365200  0.99848900  0.02429700  1
  C  14  1  0.97287000  0.07833600  0.02312200  1
  C  15  1  0.97261100  0.07721000  0.95147400  1
  C  16  1  0.97248800  0.99735200  0.95092400  1
  C  17  1  0.97175100  0.11800600  0.91717300  1
  C  18  1  0.97007700  0.08083000  0.88220000  1
  C  19  1  0.96954800  0.00129800  0.88003600  1
  C  20  1  0.97084100  0.96094100  0.91482400  1
  C  21  1  0.97521600  0.96323900  0.06068900  1
  C  22  1  0.97541000  0.00480800  0.09511000  1
  C  23  1  0.97421000  0.08420600  0.09238000  1
  C  24  1  0.97281000  0.12024000  0.05709600  1
  C  37  1  0.97276700  0.95292900  0.98778700  1
  C  38  1  0.97260300  0.12109300  0.98712400  1
  C  41  1  0.97037800  0.78479100  0.98807000  1
  C  44  1  0.96609400  0.96458300  0.84484200  1
  C  45  1  0.68838700  0.94363100  0.98797900  1
  C  46  1  0.98158400  0.96978300  0.13056200  1
  C  50  1  0.25733800  0.93484700  0.98727400  1
  C  52  1  0.90996800  0.04707600  0.48727000  1
  C  53  1  0.83010400  0.04671000  0.48727600  1
  C  54  1  0.82777900  0.90427700  0.48667600  1
  C  55  1  0.90758700  0.90112700  0.48650000  1
  C  56  1  0.94217800  0.82837000  0.48634100  1
  C  57  1  0.90013000  0.76014200  0.48639800  1
  C  58  1  0.82068300  0.76668900  0.48648600  1
  C  59  1  0.78527700  0.83715000  0.48660200  1
  C  60  1  0.78990600  0.11528400  0.48744000  1
  C  61  1  0.82769800  0.18453400  0.48749100  1
  C  62  1  0.90729100  0.18821600  0.48741200  1
  C  63  1  0.94697300  0.11858400  0.48735500  1
  C  64  1  0.99905400  0.97182200  0.52341800  1
  C  65  1  0.07891200  0.97102100  0.52230600  1
  C  66  1  0.07833800  0.97134900  0.45071400  1
  C  67  1  0.99849000  0.97329800  0.44999500  1
  C  68  1  0.11957400  0.97097500  0.41654500  1
  C  69  1  0.08287200  0.97327900  0.38147000  1
  C  70  1  0.00344600  0.97575200  0.37914500  1
  C  71  1  0.96254700  0.97583400  0.41377600  1
  C  72  1  0.96367500  0.97041600  0.55980700  1
  C  73  1  0.00520500  0.96873600  0.59424200  1
  C  74  1  0.08464400  0.96833100  0.59148700  1
  C  75  1  0.12076200  0.96968000  0.55626500  1
  C  88  1  0.95376800  0.97335600  0.48680000  1
  C  89  1  0.12192200  0.97054000  0.48641800  1
  C  92  1  0.78561500  0.97621200  0.48701200  1
  C  95  1  0.96798100  0.98263600  0.34383200  1
  C  96  1  0.94492300  0.25793300  0.48732400  1
  C  97  1  0.97040900  0.96437600  0.62985300  1
  C  101  1  0.93502600  0.68893800  0.48644000  1
  C  103  1  0.96466600  0.98535600  0.19796800  1
  C  105  1  0.02634600  0.92181100  0.24958200  1
  C  106  1  0.98454600  0.96476200  0.27618300  1
  C  108  1  0.92380700  0.02815200  0.22460800  1
  C  110  1  0.08371800  0.86596900  0.26104200  1
  C  116  1  0.99251000  0.98767800  0.69705000  1
  C  118  1  0.93524300  0.93958200  0.75410200  1
  C  119  1  0.98110200  0.98805600  0.77637300  1
  C  121  1  0.03770400  0.03513800  0.71944300  1
  C  123  1  0.87842300  0.88837900  0.77045100  1
  C  129  1  0.39271000  0.90557900  0.98746100  1
  C  131  1  0.50563600  0.98122000  0.98748400  1
  C  132  1  0.55072100  0.91499600  0.98767900  1
  C  134  1  0.43799300  0.84056000  0.98763600  1
  C  136  1  0.53749300  0.05793600  0.98738700  1
  C  142  1  0.90595900  0.55362100  0.48676900  1
  C  144  1  0.98199200  0.44095700  0.48694500  1
  C  145  1  0.91593700  0.39564300  0.48704600  1
  C  147  1  0.84110100  0.50811300  0.48687900  1
  C  149  1  0.05880600  0.40933800  0.48697000  1
  H  25  1  0.97584400  0.11718600  0.11613700  1
  H  26  1  0.97267700  0.17788000  0.05640500  1
  H  27  1  0.97153900  0.17566000  0.91739600  1
  H  28  1  0.96844700  0.11317400  0.85822900  1
  H  29  1  0.97022200  0.90333900  0.91398600  1
  H  30  1  0.97653800  0.90568600  0.06204500  1
  H  31  1  0.12078800  0.99932000  0.98731600  1
  H  32  1  0.22658400  0.78676800  0.98741800  1
  H  33  1  0.10767200  0.72719400  0.98775300  1
  H  34  1  0.82639500  0.00339600  0.98805800  1
  H  35  1  0.83129900  0.73109000  0.98834200  1
  H  36  1  0.71402100  0.79436300  0.98825700  1
  H  39  1  0.92254000  0.15703800  0.98703300  1
  H  40  1  0.02240000  0.15739800  0.98692400  1
  H  42  1  0.96955900  0.74855700  0.96300300  1
  H  43  1  0.97019500  0.74877200  0.01321400  1
  H  47  1  0.00626600  0.91961500  0.13220700  1
  H  48  1  0.95455900  0.90994300  0.84395100  1
  H  49  1  0.68747400  0.99944900  0.98794800  1
  H  51  1  0.26106000  0.99068100  0.98714900  1
  H  76  1  0.11768000  0.96584500  0.61521100  1
  H  77  1  0.17839800  0.96871100  0.55561400  1
  H  78  1  0.17722200  0.96999500  0.41693600  1
  H  79  1  0.11544800  0.97461600  0.35756600  1
  H  80  1  0.90500600  0.97817100  0.41270600  1
  H  81  1  0.90611500  0.97038400  0.56115500  1
  H  82  1  0.99971400  0.82525600  0.48630700  1
  H  83  1  0.78695600  0.71997100  0.48652300  1
  H  84  1  0.72764600  0.83904700  0.48672900  1
  H  85  1  0.00458600  0.11968800  0.48724700  1
  H  86  1  0.73224700  0.11534000  0.48743400  1
  H  87  1  0.79570700  0.23246200  0.48753900  1
  H  90  1  0.15881200  0.01991600  0.48640700  1
  H  91  1  0.15727600  0.92005000  0.48627600  1
  H  93  1  0.74940500  0.97719800  0.46193600  1
  H  94  1  0.74957100  0.97641800  0.51214900  1
  H  98  1  0.91921900  0.94221400  0.63211800  1
  H  99  1  0.91820800  0.00808400  0.34228600  1
  H  100  1  0.00074000  0.25886800  0.48735500  1
  H  102  1  0.99085600  0.68517100  0.48634100  1
  H  109  1  0.88743900  0.06942000  0.21609900  1
  H  111  1  0.10953200  0.83919000  0.23642400  1
  H  112  1  0.05764200  0.82228700  0.27838600  1
  H  113  1  0.12796000  0.89353600  0.27741700  1
  H  122  1  0.07630100  0.07066800  0.70752100  1
  H  124  1  0.84670500  0.85948700  0.74829800  1
  H  125  1  0.83878700  0.92018600  0.78782800  1
  H  126  1  0.90606300  0.84583900  0.78785000  1
  H  135  1  0.41484200  0.78784300  0.98770400  1
  H  137  1  0.49310700  0.10049400  0.98721500  1
  H  138  1  0.57218500  0.06600300  0.96221100  1
  H  139  1  0.57180600  0.06641000  0.01265900  1
  H  148  1  0.78830500  0.53108400  0.48686000  1
  H  150  1  0.10122600  0.45385000  0.48686800  1
  H  151  1  0.06713200  0.37466800  0.46180800  1
  H  152  1  0.06722000  0.37504200  0.51225300  1
  N  104  1  0.01482000  0.93450100  0.21191100  1
  N  107  1  0.93560300  0.01689800  0.26224500  1
  N  114  1  0.96037900  0.00274800  0.16133300  1
  N  115  1  0.00052400  0.96103000  0.31303600  1
  N  117  1  0.94347500  0.94154900  0.71555700  1
  N  120  1  0.02946200  0.03406600  0.75760200  1
  N  127  1  0.00502600  0.98636400  0.65995800  1
  N  128  1  0.97902600  0.99980600  0.81359600  1
  N  130  1  0.42887000  0.97325800  0.98739000  1
  N  133  1  0.51393800  0.84796400  0.98774100  1
  N  140  1  0.31851100  0.89580800  0.98742400  1
  N  141  1  0.62537200  0.90761700  0.98785200  1
  N  143  1  0.97376600  0.51769700  0.48680900  1
  N  146  1  0.84877500  0.43219000  0.48701000  1
  N  153  1  0.89595000  0.62779300  0.48664400  1
  N  154  1  0.90888000  0.32094800  0.48718000  1
