# generated using pymatgen
data_H6C10N3
_symmetry_space_group_name_H-M   'P 1'
_cell_length_a   21.35167500
_cell_length_b   21.35170000
_cell_length_c   26.99740000
_cell_angle_alpha   90.00000000
_cell_angle_beta   90.00000000
_cell_angle_gamma   120.00011620
_symmetry_Int_Tables_number   1
_chemical_formula_structural   H6C10N3
_chemical_formula_sum   'H144 C240 N72'
_cell_volume   10659.00027729
_cell_formula_units_Z   24
loop_
 _symmetry_equiv_pos_site_id
 _symmetry_equiv_pos_as_xyz
  1  'x, y, z'
loop_
 _atom_site_type_symbol
 _atom_site_label
 _atom_site_symmetry_multiplicity
 _atom_site_fract_x
 _atom_site_fract_y
 _atom_site_fract_z
 _atom_site_occupancy
  C  1  1  0.76369900  0.16050800  0.00874700  1
  C  2  1  0.69214650  0.12994050  0.98992100  1
  C  3  1  0.63556200  0.06190800  0.00624700  1
  C  4  1  0.65186950  0.02719250  0.04446500  1
  C  5  1  0.71989600  0.05959900  0.06847500  1
  C  6  1  0.77784750  0.12519350  0.04875500  1
  C  9  1  0.82138200  0.21748000  0.98183800  1
  C  10  1  0.85644100  0.20235900  0.94215300  1
  C  11  1  0.92246550  0.25958450  0.92237300  1
  C  12  1  0.95529550  0.32793450  0.94596850  1
  C  13  1  0.92104550  0.34523550  0.98396800  1
  C  14  1  0.85272050  0.28923850  0.00039400  1
  C  23  1  0.37348600  0.21755500  0.34209500  1
  C  24  1  0.41458050  0.28909550  0.32327100  1
  C  25  1  0.40317800  0.34571200  0.33958000  1
  C  26  1  0.35229800  0.32947100  0.37788300  1
  C  27  1  0.31644450  0.26140250  0.40181900  1
  C  28  1  0.32402100  0.20341100  0.38209900  1
  C  31  1  0.37272850  0.15983450  0.31519200  1
  C  32  1  0.32259100  0.12486300  0.27547300  1
  C  33  1  0.31381350  0.05886350  0.25565700  1
  C  34  1  0.34933550  0.02601250  0.27923300  1
  C  35  1  0.40082450  0.06018750  0.31728100  1
  C  36  1  0.41308500  0.12845400  0.33378300  1
  C  45  1  0.82073450  0.60789250  0.67550200  1
  C  46  1  0.85117700  0.56675100  0.65674800  1
  C  47  1  0.91923600  0.57822800  0.67305900  1
  C  48  1  0.95395900  0.62929800  0.71125300  1
  C  49  1  0.92166000  0.66506100  0.73519400  1
  C  50  1  0.85608500  0.65743300  0.71546100  1
  C  53  1  0.76373200  0.60853400  0.64857700  1
  C  54  1  0.77886650  0.65864050  0.60883900  1
  C  55  1  0.72160000  0.66732000  0.58897800  1
  C  56  1  0.65328700  0.63195800  0.61264700  1
  C  57  1  0.63598550  0.58042150  0.65065700  1
  C  58  1  0.69198450  0.56814050  0.66713500  1
  C  67  1  0.20802450  0.83088650  0.00875500  1
  C  68  1  0.27976550  0.86199750  0.99021300  1
  C  69  1  0.33578700  0.93041900  0.00646500  1
  C  70  1  0.31860100  0.96497700  0.04431700  1
  C  71  1  0.25031000  0.93220000  0.06802300  1
  C  72  1  0.19299350  0.86616550  0.04832500  1
  C  75  1  0.15098450  0.77315150  0.98192100  1
  C  76  1  0.11532550  0.78729150  0.94214400  1
  C  77  1  0.04960050  0.72933250  0.92259500  1
  C  78  1  0.01747450  0.66129850  0.94657700  1
  C  79  1  0.05252350  0.64500950  0.98457900  1
  C  80  1  0.12076150  0.70157150  0.00061700  1
  C  89  1  0.59956750  0.77324650  0.34207200  1
  C  90  1  0.55907350  0.70151550  0.32350800  1
  C  91  1  0.57142350  0.64549250  0.33981700  1
  C  92  1  0.62313750  0.66270950  0.37769400  1
  C  93  1  0.65854900  0.73098600  0.40141900  1
  C  94  1  0.64986200  0.78830200  0.38166900  1
  C  97  1  0.59884700  0.83027700  0.31524800  1
  C  98  1  0.64857700  0.86596300  0.27544000  1
  C  99  1  0.65623900  0.93163800  0.25588600  1
  C  100  1  0.62019950  0.96363750  0.27983700  1
  C  101  1  0.56905500  0.92868700  0.31794800  1
  C  102  1  0.55752900  0.86051400  0.33402400  1
  C  111  1  0.15034200  0.38183200  0.67537900  1
  C  112  1  0.11916450  0.42239150  0.65682400  1
  C  113  1  0.05081150  0.41006650  0.67316100  1
  C  114  1  0.01646750  0.35852450  0.71115300  1
  C  115  1  0.04921050  0.32294750  0.73479800  1
  C  116  1  0.11516400  0.33156700  0.71500200  1
  C  119  1  0.20808550  0.38253150  0.64854600  1
  C  120  1  0.19398850  0.33283450  0.60871000  1
  C  121  1  0.25197600  0.32511500  0.58915600  1
  C  122  1  0.32003300  0.36113900  0.61309200  1
  C  123  1  0.33626000  0.41229700  0.65119700  1
  C  124  1  0.27961800  0.42375800  0.66737100  1
  C  133  1  0.06220600  0.53622500  0.00234300  1
  C  135  1  0.95305750  0.41886050  0.99882400  1
  C  136  1  0.91250750  0.45422150  0.00421300  1
  C  138  1  0.02133650  0.57152050  0.99946500  1
  C  141  1  0.45063750  0.91900950  0.33563500  1
  C  143  1  0.44240600  0.02814800  0.33215300  1
  C  144  1  0.51829450  0.06869150  0.33768700  1
  C  146  1  0.52682700  0.95988000  0.33296400  1
  C  149  1  0.44501000  0.53063700  0.66902300  1
  C  151  1  0.56236300  0.53883300  0.66551800  1
  C  152  1  0.52699300  0.46293000  0.67095600  1
  C  154  1  0.40967050  0.45445450  0.66625700  1
  C  157  1  0.52141650  0.45451150  0.32125600  1
  C  159  1  0.52965100  0.57185600  0.32504100  1
  C  160  1  0.45367600  0.53646800  0.32013700  1
  C  162  1  0.44527500  0.41912700  0.32451500  1
  C  165  1  0.52680300  0.07133500  0.98792200  1
  C  167  1  0.40942350  0.96225150  0.99168400  1
  C  168  1  0.44477600  0.92163100  0.98677300  1
  C  170  1  0.56211550  0.03050850  0.99122000  1
  C  173  1  0.90979150  0.46002950  0.65468500  1
  C  175  1  0.01892250  0.45181250  0.65837800  1
  C  176  1  0.05950850  0.52778950  0.65346200  1
  C  178  1  0.95060800  0.53615700  0.65802500  1
  C  181  1  0.67046850  0.92124750  0.16551800  1
  C  183  1  0.72244550  0.02861050  0.11505800  1
  C  184  1  0.74481950  0.07030550  0.15892100  1
  C  186  1  0.68986250  0.96295250  0.20938900  1
  C  189  1  0.22737300  0.31086700  0.49871700  1
  C  191  1  0.28282250  0.25886250  0.44836100  1
  C  192  1  0.30207750  0.23651650  0.49225800  1
  C  194  1  0.24959950  0.29152350  0.54264400  1
  C  197  1  0.06004100  0.75394300  0.83222300  1
  C  199  1  0.95267950  0.69864350  0.78175900  1
  C  200  1  0.91098500  0.67939900  0.82562200  1
  C  202  1  0.01832950  0.73168350  0.87609200  1
  C  205  1  0.29905500  0.07004700  0.16535100  1
  C  207  1  0.24717550  0.96298550  0.11458700  1
  C  208  1  0.22447400  0.92103600  0.15833600  1
  C  210  1  0.27975350  0.02814550  0.20913000  1
  C  213  1  0.74759200  0.68215600  0.49874700  1
  C  215  1  0.69254450  0.73422950  0.44797200  1
  C  216  1  0.67338800  0.75698100  0.49173900  1
  C  218  1  0.72495650  0.70149050  0.54248500  1
  C  221  1  0.91136250  0.23385850  0.83212800  1
  C  223  1  0.01845450  0.28891450  0.78133700  1
  C  224  1  0.06037300  0.30796800  0.82509700  1
  C  226  1  0.95332150  0.25630650  0.87588900  1
  C  913  1  0.76369900  0.16050800  0.52721900  1
  C  914  1  0.69214650  0.12994050  0.50839300  1
  C  915  1  0.63556200  0.06190800  0.52471900  1
  C  916  1  0.65186950  0.02719250  0.56293700  1
  C  917  1  0.71989600  0.05959900  0.58694700  1
  C  918  1  0.77784750  0.12519350  0.56722700  1
  C  921  1  0.82138200  0.21748000  0.50031000  1
  C  922  1  0.85644100  0.20235900  0.46062500  1
  C  923  1  0.92246550  0.25958450  0.44084500  1
  C  924  1  0.95529550  0.32793450  0.46444050  1
  C  925  1  0.92104550  0.34523550  0.50244000  1
  C  926  1  0.85272050  0.28923850  0.51886600  1
  C  935  1  0.37348600  0.21755500  0.86056700  1
  C  936  1  0.41458050  0.28909550  0.84174300  1
  C  937  1  0.40317800  0.34571200  0.85805200  1
  C  938  1  0.35229800  0.32947100  0.89635500  1
  C  939  1  0.31644450  0.26140250  0.92029110  1
  C  940  1  0.32402100  0.20341100  0.90057110  1
  C  943  1  0.37272850  0.15983450  0.83366400  1
  C  944  1  0.32259100  0.12486300  0.79394500  1
  C  945  1  0.31381350  0.05886350  0.77412900  1
  C  946  1  0.34933550  0.02601250  0.79770500  1
  C  947  1  0.40082450  0.06018750  0.83575300  1
  C  948  1  0.41308500  0.12845400  0.85225500  1
  C  957  1  0.82073450  0.60789250  0.19397400  1
  C  958  1  0.85117700  0.56675100  0.17522000  1
  C  959  1  0.91923600  0.57822800  0.19153100  1
  C  960  1  0.95395900  0.62929800  0.22972500  1
  C  961  1  0.92166000  0.66506100  0.25366600  1
  C  962  1  0.85608500  0.65743300  0.23393300  1
  C  965  1  0.76373200  0.60853400  0.16704900  1
  C  966  1  0.77886650  0.65864050  0.12731100  1
  C  967  1  0.72160000  0.66732000  0.10745000  1
  C  968  1  0.65328700  0.63195800  0.13111900  1
  C  969  1  0.63598550  0.58042150  0.16912900  1
  C  970  1  0.69198450  0.56814050  0.18560700  1
  C  979  1  0.20802450  0.83088650  0.52722700  1
  C  980  1  0.27976550  0.86199750  0.50868500  1
  C  981  1  0.33578700  0.93041900  0.52493700  1
  C  982  1  0.31860100  0.96497700  0.56278900  1
  C  983  1  0.25031000  0.93220000  0.58649500  1
  C  984  1  0.19299350  0.86616550  0.56679700  1
  C  987  1  0.15098450  0.77315150  0.50039300  1
  C  988  1  0.11532550  0.78729150  0.46061600  1
  C  989  1  0.04960050  0.72933250  0.44106700  1
  C  990  1  0.01747450  0.66129850  0.46504900  1
  C  991  1  0.05252350  0.64500950  0.50305100  1
  C  992  1  0.12076150  0.70157150  0.51908900  1
  C  1001  1  0.59956750  0.77324650  0.86054400  1
  C  1002  1  0.55907350  0.70151550  0.84198000  1
  C  1003  1  0.57142350  0.64549250  0.85828900  1
  C  1004  1  0.62313750  0.66270950  0.89616600  1
  C  1005  1  0.65854900  0.73098600  0.91989110  1
  C  1006  1  0.64986200  0.78830200  0.90014110  1
  C  1009  1  0.59884700  0.83027700  0.83372000  1
  C  1010  1  0.64857700  0.86596300  0.79391200  1
  C  1011  1  0.65623900  0.93163800  0.77435800  1
  C  1012  1  0.62019950  0.96363750  0.79830900  1
  C  1013  1  0.56905500  0.92868700  0.83642000  1
  C  1014  1  0.55752900  0.86051400  0.85249600  1
  C  1023  1  0.15034200  0.38183200  0.19385100  1
  C  1024  1  0.11916450  0.42239150  0.17529600  1
  C  1025  1  0.05081150  0.41006650  0.19163300  1
  C  1026  1  0.01646750  0.35852450  0.22962500  1
  C  1027  1  0.04921050  0.32294750  0.25327000  1
  C  1028  1  0.11516400  0.33156700  0.23347400  1
  C  1031  1  0.20808550  0.38253150  0.16701800  1
  C  1032  1  0.19398850  0.33283450  0.12718200  1
  C  1033  1  0.25197600  0.32511500  0.10762800  1
  C  1034  1  0.32003300  0.36113900  0.13156400  1
  C  1035  1  0.33626000  0.41229700  0.16966900  1
  C  1036  1  0.27961800  0.42375800  0.18584300  1
  C  1045  1  0.06220600  0.53622500  0.52081500  1
  C  1047  1  0.95305750  0.41886050  0.51729600  1
  C  1048  1  0.91250750  0.45422150  0.52268500  1
  C  1050  1  0.02133650  0.57152050  0.51793700  1
  C  1053  1  0.45063750  0.91900950  0.85410700  1
  C  1055  1  0.44240600  0.02814800  0.85062500  1
  C  1056  1  0.51829450  0.06869150  0.85615900  1
  C  1058  1  0.52682700  0.95988000  0.85143600  1
  C  1061  1  0.44501000  0.53063700  0.18749500  1
  C  1063  1  0.56236300  0.53883300  0.18399000  1
  C  1064  1  0.52699300  0.46293000  0.18942800  1
  C  1066  1  0.40967050  0.45445450  0.18472900  1
  C  1069  1  0.52141650  0.45451150  0.83972800  1
  C  1071  1  0.52965100  0.57185600  0.84351300  1
  C  1072  1  0.45367600  0.53646800  0.83860900  1
  C  1074  1  0.44527500  0.41912700  0.84298700  1
  C  1077  1  0.52680300  0.07133500  0.50639400  1
  C  1079  1  0.40942350  0.96225150  0.51015600  1
  C  1080  1  0.44477600  0.92163100  0.50524500  1
  C  1082  1  0.56211550  0.03050850  0.50969200  1
  C  1085  1  0.90979150  0.46002950  0.17315700  1
  C  1087  1  0.01892250  0.45181250  0.17685000  1
  C  1088  1  0.05950850  0.52778950  0.17193400  1
  C  1090  1  0.95060800  0.53615700  0.17649700  1
  C  1093  1  0.67046850  0.92124750  0.68399000  1
  C  1095  1  0.72244550  0.02861050  0.63353000  1
  C  1096  1  0.74481950  0.07030550  0.67739300  1
  C  1098  1  0.68986250  0.96295250  0.72786100  1
  C  1101  1  0.22737300  0.31086700  0.01718900  1
  C  1103  1  0.28282250  0.25886250  0.96683310  1
  C  1104  1  0.30207750  0.23651650  0.01073000  1
  C  1106  1  0.24959950  0.29152350  0.06111600  1
  C  1109  1  0.06004100  0.75394300  0.35069500  1
  C  1111  1  0.95267950  0.69864350  0.30023100  1
  C  1112  1  0.91098500  0.67939900  0.34409400  1
  C  1114  1  0.01832950  0.73168350  0.39456400  1
  C  1117  1  0.29905500  0.07004700  0.68382300  1
  C  1119  1  0.24717550  0.96298550  0.63305900  1
  C  1120  1  0.22447400  0.92103600  0.67680800  1
  C  1122  1  0.27975350  0.02814550  0.72760200  1
  C  1125  1  0.74759200  0.68215600  0.01721900  1
  C  1127  1  0.69254450  0.73422950  0.96644410  1
  C  1128  1  0.67338800  0.75698100  0.01021100  1
  C  1130  1  0.72495650  0.70149050  0.06095700  1
  C  1133  1  0.91136250  0.23385850  0.35060000  1
  C  1135  1  0.01845450  0.28891450  0.29980900  1
  C  1136  1  0.06037300  0.30796800  0.34356900  1
  C  1138  1  0.95332150  0.25630650  0.39436100  1
  H  7  1  0.68223200  0.15491000  0.96104700  1
  H  8  1  0.60998500  0.98140600  0.05975600  1
  H  15  1  0.00147850  0.36932150  0.93070900  1
  H  16  1  0.82807750  0.29967150  0.02922000  1
  H  19  1  0.88721550  0.19559050  0.05429200  1
  H  20  1  0.85757200  0.12503600  0.09103300  1
  H  21  1  0.85559350  0.12165750  0.90041800  1
  H  22  1  0.78495950  0.09316750  0.93695900  1
  H  29  1  0.44936450  0.29891450  0.29434600  1
  H  30  1  0.34827650  0.37134650  0.39308500  1
  H  37  1  0.34458700  0.97987400  0.26393500  1
  H  38  1  0.44819650  0.15313850  0.36258600  1
  H  41  1  0.28491500  0.09401800  0.38760300  1
  H  42  1  0.24407650  0.12372150  0.42436200  1
  H  43  1  0.24277550  0.12578950  0.23374300  1
  H  44  1  0.28490350  0.19636950  0.27033200  1
  H  51  1  0.82628400  0.53197500  0.62781200  1
  H  52  1  0.99980500  0.63323500  0.72647100  1
  H  59  1  0.61192400  0.63669400  0.59729400  1
  H  60  1  0.68155950  0.53302950  0.69593900  1
  H  63  1  0.78565450  0.69636250  0.72099200  1
  H  64  1  0.85620850  0.73733250  0.75772600  1
  H  65  1  0.85956950  0.73859750  0.56720200  1
  H  66  1  0.88809950  0.69656950  0.60382800  1
  H  73  1  0.29015500  0.83716500  0.96148800  1
  H  74  1  0.36006250  0.01104650  0.05962600  1
  H  81  1  0.97158700  0.61935900  0.93142700  1
  H  82  1  0.14589500  0.69170900  0.02940800  1
  H  85  1  0.08379450  0.79475850  0.05362600  1
  H  86  1  0.11237550  0.86561350  0.08997400  1
  H  87  1  0.11485800  0.86696600  0.89997500  1
  H  88  1  0.18575300  0.89664100  0.93640400  1
  H  95  1  0.52372350  0.69105850  0.29485300  1
  H  96  1  0.62773750  0.62125950  0.39302600  1
  H  103  1  0.62425150  0.00963250  0.26478300  1
  H  104  1  0.52262800  0.83541100  0.36286700  1
  H  107  1  0.68783100  0.89753700  0.38679500  1
  H  108  1  0.73003700  0.86894100  0.42319900  1
  H  109  1  0.72866500  0.86642500  0.23318000  1
  H  110  1  0.68753550  0.79557150  0.26964700  1
  H  117  1  0.14400750  0.45761950  0.62810100  1
  H  118  1  0.97031450  0.35379050  0.72641800  1
  H  125  1  0.36196700  0.35708900  0.59802000  1
  H  126  1  0.28941900  0.45870600  0.69618500  1
  H  129  1  0.18632400  0.29345700  0.72002500  1
  H  130  1  0.11558400  0.25133600  0.75649000  1
  H  131  1  0.11433100  0.25285300  0.56640600  1
  H  132  1  0.08466250  0.29400150  0.60290500  1
  H  139  1  0.11705050  0.56380050  0.99772800  1
  H  140  1  0.85743000  0.42650100  0.00122000  1
  H  147  1  0.42339150  0.86417850  0.33092300  1
  H  148  1  0.54565750  0.12377350  0.33474200  1
  H  155  1  0.41744550  0.55791350  0.66435400  1
  H  156  1  0.55470100  0.43556300  0.66796300  1
  H  163  1  0.54876100  0.42696300  0.32560000  1
  H  164  1  0.42634750  0.56417750  0.32344800  1
  H  171  1  0.55437000  0.12622900  0.99226700  1
  H  172  1  0.41703750  0.86659050  0.99006300  1
  H  179  1  0.85490350  0.43268350  0.65906100  1
  H  180  1  0.11455500  0.55510900  0.65671800  1
  H  187  1  0.63802300  0.86629400  0.16628900  1
  H  188  1  0.76728150  0.12524950  0.15807300  1
  H  195  1  0.20487550  0.34332250  0.49944000  1
  H  196  1  0.33456750  0.21405850  0.49146500  1
  H  203  1  0.11498850  0.77638850  0.83299700  1
  H  204  1  0.85603450  0.64696350  0.82477300  1
  H  211  1  0.33167250  0.12497050  0.16624000  1
  H  212  1  0.20203600  0.86610200  0.15736900  1
  H  219  1  0.76979050  0.64944050  0.49963600  1
  H  220  1  0.64097100  0.77951300  0.49077200  1
  H  227  1  0.85645500  0.21169200  0.83302400  1
  H  228  1  0.11532350  0.34036250  0.82413200  1
  H  919  1  0.68223200  0.15491000  0.47951900  1
  H  920  1  0.60998500  0.98140600  0.57822800  1
  H  927  1  0.00147850  0.36932150  0.44918100  1
  H  928  1  0.82807750  0.29967150  0.54769200  1
  H  931  1  0.88721550  0.19559050  0.57276400  1
  H  932  1  0.85757200  0.12503600  0.60950500  1
  H  933  1  0.85559350  0.12165750  0.41889000  1
  H  934  1  0.78495950  0.09316750  0.45543100  1
  H  941  1  0.44936450  0.29891450  0.81281800  1
  H  942  1  0.34827650  0.37134650  0.91155710  1
  H  949  1  0.34458700  0.97987400  0.78240700  1
  H  950  1  0.44819650  0.15313850  0.88105800  1
  H  953  1  0.28491500  0.09401800  0.90607510  1
  H  954  1  0.24407650  0.12372150  0.94283410  1
  H  955  1  0.24277550  0.12578950  0.75221500  1
  H  956  1  0.28490350  0.19636950  0.78880400  1
  H  963  1  0.82628400  0.53197500  0.14628400  1
  H  964  1  0.99980500  0.63323500  0.24494300  1
  H  971  1  0.61192400  0.63669400  0.11576600  1
  H  972  1  0.68155950  0.53302950  0.21441100  1
  H  975  1  0.78565450  0.69636250  0.23946400  1
  H  976  1  0.85620850  0.73733250  0.27619800  1
  H  977  1  0.85956950  0.73859750  0.08567400  1
  H  978  1  0.88809950  0.69656950  0.12230000  1
  H  985  1  0.29015500  0.83716500  0.47996000  1
  H  986  1  0.36006250  0.01104650  0.57809800  1
  H  993  1  0.97158700  0.61935900  0.44989900  1
  H  994  1  0.14589500  0.69170900  0.54788000  1
  H  997  1  0.08379450  0.79475850  0.57209800  1
  H  998  1  0.11237550  0.86561350  0.60844600  1
  H  999  1  0.11485800  0.86696600  0.41844700  1
  H  1000  1  0.18575300  0.89664100  0.45487600  1
  H  1007  1  0.52372350  0.69105850  0.81332500  1
  H  1008  1  0.62773750  0.62125950  0.91149810  1
  H  1015  1  0.62425150  0.00963250  0.78325500  1
  H  1016  1  0.52262800  0.83541100  0.88133900  1
  H  1019  1  0.68783100  0.89753700  0.90526710  1
  H  1020  1  0.73003700  0.86894100  0.94167110  1
  H  1021  1  0.72866500  0.86642500  0.75165200  1
  H  1022  1  0.68753550  0.79557150  0.78811900  1
  H  1029  1  0.14400750  0.45761950  0.14657300  1
  H  1030  1  0.97031450  0.35379050  0.24489000  1
  H  1037  1  0.36196700  0.35708900  0.11649200  1
  H  1038  1  0.28941900  0.45870600  0.21465700  1
  H  1041  1  0.18632400  0.29345700  0.23849700  1
  H  1042  1  0.11558400  0.25133600  0.27496200  1
  H  1043  1  0.11433100  0.25285300  0.08487800  1
  H  1044  1  0.08466250  0.29400150  0.12137700  1
  H  1051  1  0.11705050  0.56380050  0.51620000  1
  H  1052  1  0.85743000  0.42650100  0.51969200  1
  H  1059  1  0.42339150  0.86417850  0.84939500  1
  H  1060  1  0.54565750  0.12377350  0.85321400  1
  H  1067  1  0.41744550  0.55791350  0.18282600  1
  H  1068  1  0.55470100  0.43556300  0.18643500  1
  H  1075  1  0.54876100  0.42696300  0.84407200  1
  H  1076  1  0.42634750  0.56417750  0.84192000  1
  H  1083  1  0.55437000  0.12622900  0.51073900  1
  H  1084  1  0.41703750  0.86659050  0.50853500  1
  H  1091  1  0.85490350  0.43268350  0.17753300  1
  H  1092  1  0.11455500  0.55510900  0.17519000  1
  H  1099  1  0.63802300  0.86629400  0.68476100  1
  H  1100  1  0.76728150  0.12524950  0.67654500  1
  H  1107  1  0.20487550  0.34332250  0.01791200  1
  H  1108  1  0.33456750  0.21405850  0.00993700  1
  H  1115  1  0.11498850  0.77638850  0.35146900  1
  H  1116  1  0.85603450  0.64696350  0.34324500  1
  H  1123  1  0.33167250  0.12497050  0.68471200  1
  H  1124  1  0.20203600  0.86610200  0.67584100  1
  H  1131  1  0.76979050  0.64944050  0.01810800  1
  H  1132  1  0.64097100  0.77951300  0.00924400  1
  H  1139  1  0.85645500  0.21169200  0.35149600  1
  H  1140  1  0.11532350  0.34036250  0.34260400  1
  N  17  1  0.84619600  0.15184200  0.06707500  1
  N  18  1  0.82919000  0.13371000  0.92425900  1
  N  39  1  0.28223950  0.13506150  0.40039700  1
  N  40  1  0.28122600  0.15215800  0.25759400  1
  N  61  1  0.82950700  0.69923100  0.73370100  1
  N  62  1  0.84751050  0.69999050  0.59091500  1
  N  83  1  0.12437050  0.83904450  0.06623400  1
  N  84  1  0.14177850  0.85563650  0.92387100  1
  N  105  1  0.69129600  0.85692300  0.39960800  1
  N  106  1  0.69054550  0.83959650  0.25717500  1
  N  127  1  0.14230150  0.29006450  0.73288900  1
  N  128  1  0.12565500  0.29095200  0.59042600  1
  N  134  1  0.02653650  0.46289250  0.99809400  1
  N  137  1  0.94789750  0.52757150  0.00043200  1
  N  142  1  0.41297850  0.95467650  0.33133100  1
  N  145  1  0.55626900  0.03331100  0.33395700  1
  N  150  1  0.51833900  0.56828700  0.66474800  1
  N  153  1  0.45364400  0.42498800  0.66719400  1
  N  158  1  0.55912750  0.52784750  0.32544900  1
  N  161  1  0.41580900  0.46312300  0.32396700  1
  N  166  1  0.45346400  0.03573400  0.99209400  1
  N  169  1  0.51811950  0.95706250  0.99062600  1
  N  174  1  0.94543650  0.42233050  0.65882900  1
  N  177  1  0.02405850  0.56567850  0.65736500  1
  N  182  1  0.68542000  0.95537800  0.12103600  1
  N  185  1  0.72587600  0.03617200  0.20340700  1
  N  190  1  0.24661400  0.29589800  0.45426500  1
  N  193  1  0.28682750  0.25550450  0.53670600  1
  N  198  1  0.02591250  0.73477250  0.78774100  1
  N  201  1  0.94510950  0.69456150  0.87010800  1
  N  206  1  0.28418900  0.03617800  0.12076900  1
  N  209  1  0.24351850  0.95494750  0.20289200  1
  N  214  1  0.72860850  0.69708550  0.45418000  1
  N  217  1  0.68816100  0.73788700  0.53631000  1
  N  222  1  0.94525700  0.25290300  0.78755800  1
  N  225  1  0.02650250  0.29310650  0.86967000  1
  N  929  1  0.84619600  0.15184200  0.58554700  1
  N  930  1  0.82919000  0.13371000  0.44273100  1
  N  951  1  0.28223950  0.13506150  0.91886910  1
  N  952  1  0.28122600  0.15215800  0.77606600  1
  N  973  1  0.82950700  0.69923100  0.25217300  1
  N  974  1  0.84751050  0.69999050  0.10938700  1
  N  995  1  0.12437050  0.83904450  0.58470600  1
  N  996  1  0.14177850  0.85563650  0.44234300  1
  N  1017  1  0.69129600  0.85692300  0.91808010  1
  N  1018  1  0.69054550  0.83959650  0.77564700  1
  N  1039  1  0.14230150  0.29006450  0.25136100  1
  N  1040  1  0.12565500  0.29095200  0.10889800  1
  N  1046  1  0.02653650  0.46289250  0.51656600  1
  N  1049  1  0.94789750  0.52757150  0.51890400  1
  N  1054  1  0.41297850  0.95467650  0.84980300  1
  N  1057  1  0.55626900  0.03331100  0.85242900  1
  N  1062  1  0.51833900  0.56828700  0.18322000  1
  N  1065  1  0.45364400  0.42498800  0.18566600  1
  N  1070  1  0.55912750  0.52784750  0.84392100  1
  N  1073  1  0.41580900  0.46312300  0.84243900  1
  N  1078  1  0.45346400  0.03573400  0.51056600  1
  N  1081  1  0.51811950  0.95706250  0.50909800  1
  N  1086  1  0.94543650  0.42233050  0.17730100  1
  N  1089  1  0.02405850  0.56567850  0.17583700  1
  N  1094  1  0.68542000  0.95537800  0.63950800  1
  N  1097  1  0.72587600  0.03617200  0.72187900  1
  N  1102  1  0.24661400  0.29589800  0.97273710  1
  N  1105  1  0.28682750  0.25550450  0.05517800  1
  N  1110  1  0.02591250  0.73477250  0.30621300  1
  N  1113  1  0.94510950  0.69456150  0.38858000  1
  N  1118  1  0.28418900  0.03617800  0.63924100  1
  N  1121  1  0.24351850  0.95494750  0.72136400  1
  N  1126  1  0.72860850  0.69708550  0.97265210  1
  N  1129  1  0.68816100  0.73788700  0.05478200  1
  N  1134  1  0.94525700  0.25290300  0.30603000  1
  N  1137  1  0.02650250  0.29310650  0.38814200  1
