# generated using pymatgen
data_Si(H14C19)2
_symmetry_space_group_name_H-M   'P 1'
_cell_length_a   33.23425000
_cell_length_b   33.23420000
_cell_length_c   33.24460000
_cell_angle_alpha   90.00000000
_cell_angle_beta   90.00000000
_cell_angle_gamma   119.99985070
_symmetry_Int_Tables_number   1
_chemical_formula_structural   Si(H14C19)2
_chemical_formula_sum   'Si6 H168 C228'
_cell_volume   31799.73555981
_cell_formula_units_Z   6
loop_
 _symmetry_equiv_pos_site_id
 _symmetry_equiv_pos_as_xyz
  1  'x, y, z'
loop_
 _atom_site_type_symbol
 _atom_site_label
 _atom_site_symmetry_multiplicity
 _atom_site_fract_x
 _atom_site_fract_y
 _atom_site_fract_z
 _atom_site_occupancy
  Si  7  1  0.76562200  0.23570900  0.75278500  1
  Si  48  1  0.47463600  0.23802400  0.41946600  1
  Si  89  1  0.76791400  0.52898800  0.08613700  1
  Si  130  1  0.23985300  0.76612200  0.25277200  1
  Si  171  1  0.53081500  0.76379400  0.91944800  1
  Si  212  1  0.23752800  0.47284200  0.58610700  1
  H  26  1  0.89720300  0.23317500  0.69639300  1
  H  27  1  0.82061300  0.19705400  0.72279500  1
  H  28  1  0.91055400  0.36514200  0.71422900  1
  H  29  1  0.83425200  0.32951800  0.74110500  1
  H  30  1  0.73040800  0.29836000  0.73707700  1
  H  31  1  0.68663900  0.30244000  0.68335000  1
  H  32  1  0.70617800  0.20416500  0.61868400  1
  H  33  1  0.74491500  0.19502400  0.67504800  1
  H  34  1  0.67657500  0.15453500  0.73798000  1
  H  35  1  0.64190900  0.07814100  0.76505400  1
  H  36  1  0.76429800  0.11478800  0.83056400  1
  H  37  1  0.79955200  0.19138500  0.80377100  1
  H  38  1  0.82932200  0.28634500  0.81723800  1
  H  39  1  0.68801700  0.23502500  0.78905000  1
  H  40  1  0.68263300  0.27962700  0.84061800  1
  H  41  1  0.82201700  0.32526400  0.87324800  1
  H  67  1  0.34046500  0.10637900  0.36318400  1
  H  68  1  0.38094100  0.18297500  0.38956100  1
  H  69  1  0.45914900  0.09310400  0.38085300  1
  H  70  1  0.49983600  0.16941800  0.40770200  1
  H  71  1  0.57254200  0.27339800  0.40381600  1
  H  72  1  0.62037600  0.31712800  0.35006600  1
  H  73  1  0.50251800  0.29735700  0.28533000  1
  H  74  1  0.45465000  0.25864400  0.34170300  1
  H  75  1  0.48234700  0.32699900  0.40454400  1
  H  76  1  0.44056900  0.36162400  0.43158300  1
  H  77  1  0.35504100  0.23932200  0.49728100  1
  H  78  1  0.39643900  0.20411600  0.47052100  1
  H  79  1  0.46163500  0.17426200  0.48384700  1
  H  80  1  0.55152300  0.31562000  0.45574600  1
  H  81  1  0.60153000  0.32097400  0.50726100  1
  H  82  1  0.50786000  0.18155200  0.53984100  1
  H  108  1  0.77047100  0.66317400  0.02985400  1
  H  109  1  0.80657900  0.62268800  0.05623400  1
  H  110  1  0.63850300  0.54449600  0.04749300  1
  H  111  1  0.67411700  0.50379800  0.07434300  1
  H  112  1  0.70536700  0.43107200  0.07053700  1
  H  113  1  0.70127000  0.38318600  0.01682900  1
  H  114  1  0.79933800  0.50099300  0.95202500  1
  H  115  1  0.80848300  0.54891600  0.00835600  1
  H  116  1  0.84918200  0.52128300  0.07119900  1
  H  117  1  0.92558800  0.56306300  0.09822900  1
  H  118  1  0.88881500  0.64857600  0.16394800  1
  H  119  1  0.81220900  0.60718000  0.13719500  1
  H  120  1  0.71712500  0.54198600  0.15049600  1
  H  121  1  0.76867500  0.45215100  0.12246200  1
  H  122  1  0.72402400  0.40214600  0.17397700  1
  H  123  1  0.67819400  0.49577000  0.20649900  1
  H  149  1  0.10822300  0.76867400  0.19648600  1
  H  150  1  0.18481200  0.80478300  0.22287200  1
  H  151  1  0.09493600  0.63670800  0.21413100  1
  H  152  1  0.17124200  0.67232100  0.24098900  1
  H  153  1  0.27520600  0.70356200  0.23715700  1
  H  154  1  0.31895600  0.69944500  0.18342800  1
  H  155  1  0.29920500  0.79751800  0.11864400  1
  H  156  1  0.26047900  0.80669100  0.17499400  1
  H  157  1  0.32885600  0.84737700  0.23785500  1
  H  158  1  0.36349600  0.92377300  0.26493300  1
  H  159  1  0.24119400  0.88698000  0.33063100  1
  H  160  1  0.20597400  0.81039300  0.30383900  1
  H  161  1  0.17608300  0.71537000  0.31715500  1
  H  162  1  0.31744900  0.76686000  0.28907200  1
  H  163  1  0.32280700  0.72221700  0.34059600  1
  H  164  1  0.18338400  0.67645100  0.37317000  1
  H  190  1  0.66496000  0.89543900  0.86315700  1
  H  191  1  0.62448800  0.81883800  0.88952500  1
  H  192  1  0.54629100  0.90872600  0.88086900  1
  H  193  1  0.50560100  0.83240300  0.90771200  1
  H  194  1  0.43290900  0.72846400  0.90382000  1
  H  195  1  0.38504500  0.68471300  0.85008800  1
  H  196  1  0.50286500  0.70442400  0.78532600  1
  H  197  1  0.55076200  0.74314800  0.84168100  1
  H  198  1  0.52305900  0.67478800  0.90454100  1
  H  199  1  0.56481500  0.64014600  0.93163000  1
  H  200  1  0.65036600  0.76247600  0.99728000  1
  H  201  1  0.60899900  0.79769300  0.97048300  1
  H  202  1  0.54385800  0.82753800  0.98386300  1
  H  203  1  0.45391700  0.68618300  0.95575300  1
  H  204  1  0.40394800  0.68082900  0.00727600  1
  H  205  1  0.49763900  0.82023500  0.03988000  1
  H  231  1  0.23496400  0.33866700  0.52981800  1
  H  232  1  0.19886500  0.37916400  0.55618900  1
  H  233  1  0.36694300  0.45731300  0.54749300  1
  H  234  1  0.33134200  0.49803100  0.57434300  1
  H  235  1  0.30010700  0.57074700  0.57046800  1
  H  236  1  0.30421700  0.61860200  0.51673600  1
  H  237  1  0.20610500  0.50078000  0.45198300  1
  H  238  1  0.19693500  0.45288900  0.50834100  1
  H  239  1  0.15627800  0.48059400  0.57118100  1
  H  240  1  0.07988000  0.43884400  0.59825900  1
  H  241  1  0.11666400  0.35332200  0.66395700  1
  H  242  1  0.19324600  0.39468400  0.63716800  1
  H  243  1  0.28825800  0.45981400  0.65050600  1
  H  244  1  0.23681900  0.54974400  0.62241700  1
  H  245  1  0.28142700  0.59970500  0.67395600  1
  H  246  1  0.32716200  0.50602500  0.70652700  1
  H  252  1  0.67738100  0.30803200  0.89809800  1
  H  254  1  0.82133900  0.43907600  0.94325200  1
  H  255  1  0.82362400  0.38886200  0.89530000  1
  H  257  1  0.64022800  0.35739900  0.91118000  1
  H  258  1  0.65975100  0.39263400  0.95402800  1
  H  259  1  0.63876100  0.33219200  0.95859700  1
  H  265  1  0.63530800  0.32622000  0.56464800  1
  H  267  1  0.62233100  0.18226000  0.60987300  1
  H  268  1  0.56982200  0.17997100  0.56193800  1
  H  270  1  0.72183100  0.36332600  0.57765800  1
  H  271  1  0.73756700  0.34383500  0.62051000  1
  H  272  1  0.69816000  0.36482667  0.62508500  1
  H  278  1  0.69554200  0.36841800  0.23140600  1
  H  280  1  0.56444000  0.38125500  0.27651100  1
  H  281  1  0.61467200  0.43378700  0.22859300  1
  H  283  1  0.64617800  0.28188100  0.24443900  1
  H  284  1  0.61093000  0.26614500  0.28727900  1
  H  285  1  0.67136800  0.30560800  0.29186400  1
  H  291  1  0.32805800  0.69376600  0.39804000  1
  H  293  1  0.18412400  0.56267700  0.44318200  1
  H  294  1  0.18181900  0.61289200  0.39524600  1
  H  296  1  0.36520900  0.64438800  0.41106800  1
  H  297  1  0.34572500  0.60916900  0.45392900  1
  H  298  1  0.36672800  0.66961200  0.45848900  1
  H  304  1  0.37027000  0.67557800  0.06474100  1
  H  306  1  0.38312300  0.81951500  0.10987000  1
  H  307  1  0.43564400  0.82181700  0.06193800  1
  H  309  1  0.28374000  0.63840000  0.07779600  1
  H  310  1  0.26800600  0.65791700  0.12063600  1
  H  311  1  0.30747100  0.63694600  0.12522300  1
  H  317  1  0.30987700  0.63340200  0.73139800  1
  H  319  1  0.44093800  0.62051900  0.77655400  1
  H  320  1  0.39071700  0.56799800  0.72862300  1
  H  322  1  0.35923700  0.71993200  0.74445000  1
  H  323  1  0.39448500  0.73566200  0.78729400  1
  H  324  1  0.33404500  0.69620600  0.79187400  1
  H  330  1  0.61946800  0.98780600  0.90135300  1
  H  332  1  0.69203600  0.01209800  0.77011200  1
  H  333  1  0.65426300  0.93626300  0.79935000  1
  H  335  1  0.63858400  0.06580000  0.90816500  1
  H  336  1  0.64015900  0.09205100  0.86162600  1
  H  337  1  0.69264700  0.10405800  0.88588000  1
  H  343  1  0.37283200  0.38413900  0.56797800  1
  H  345  1  0.32450800  0.31154900  0.43675000  1
  H  346  1  0.28647300  0.34934600  0.46598800  1
  H  348  1  0.43170700  0.36502300  0.57477900  1
  H  349  1  0.45635400  0.36341700  0.52823600  1
  H  350  1  0.41588400  0.31094600  0.55251700  1
  H  356  1  0.01584800  0.63079800  0.23463300  1
  H  358  1  0.99157800  0.67912300  0.10340600  1
  H  359  1  0.06741200  0.71716600  0.13265000  1
  H  361  1  0.93785700  0.57191700  0.24143100  1
  H  362  1  0.91160100  0.54726900  0.19488500  1
  H  363  1  0.89960100  0.58774000  0.21917200  1
  H  369  1  0.38597800  0.01402000  0.40134300  1
  H  371  1  0.31340100  0.98973700  0.27010700  1
  H  372  1  0.35117000  0.06556900  0.29935400  1
  H  374  1  0.36688500  0.93603500  0.40814100  1
  H  375  1  0.36529400  0.90978300  0.36160100  1
  H  376  1  0.31281500  0.89777400  0.38587300  1
  H  382  1  0.63258300  0.61766100  0.06799600  1
  H  384  1  0.68093200  0.69029000  0.93678300  1
  H  385  1  0.71898200  0.65251000  0.96602800  1
  H  387  1  0.57369900  0.63676700  0.07479100  1
  H  388  1  0.54904400  0.63834900  0.02824200  1
  H  389  1  0.58950100  0.69083400  0.05251600  1
  H  395  1  0.98961900  0.37101400  0.73467400  1
  H  397  1  0.01389000  0.32280500  0.60339400  1
  H  398  1  0.93805500  0.28474500  0.63263200  1
  H  400  1  0.06761000  0.42988900  0.74148900  1
  H  401  1  0.09386900  0.45457800  0.69495500  1
  H  402  1  0.10586600  0.41408600  0.71920200  1
  C  1  1  0.75239300  0.30998400  0.86241900  1
  C  2  1  0.71371900  0.28074300  0.83777400  1
  C  3  1  0.71709400  0.25458900  0.80612900  1
  C  4  1  0.76059300  0.26011200  0.79486200  1
  C  5  1  0.79798800  0.28451600  0.82179900  1
  C  6  1  0.79359000  0.30813300  0.85511900  1
  C  8  1  0.74267900  0.18038400  0.76631100  1
  C  9  1  0.76682700  0.16771400  0.79407300  1
  C  10  1  0.74621500  0.12260400  0.81006200  1
  C  11  1  0.70036000  0.08927400  0.79946400  1
  C  12  1  0.67576500  0.10142800  0.77211000  1
  C  13  1  0.69657100  0.14654100  0.75596400  1
  C  14  1  0.73926700  0.24351500  0.71329800  1
  C  15  1  0.82028200  0.25955800  0.73694700  1
  C  16  1  0.83939800  0.23257200  0.72257800  1
  C  17  1  0.88444400  0.25381800  0.70624900  1
  C  18  1  0.91171800  0.30269900  0.70348600  1
  C  19  1  0.89239200  0.32970500  0.71698500  1
  C  20  1  0.84715900  0.30846300  0.73276800  1
  C  21  1  0.72442700  0.27671600  0.71323800  1
  C  22  1  0.69970400  0.28045500  0.68063700  1
  C  23  1  0.69241400  0.25424000  0.64517800  1
  C  24  1  0.71051900  0.22371700  0.64382800  1
  C  25  1  0.73348800  0.21843200  0.67723800  1
  C  42  1  0.56216000  0.25121300  0.52905700  1
  C  43  1  0.57155400  0.28989300  0.50443700  1
  C  44  1  0.54193700  0.28657400  0.47288600  1
  C  45  1  0.50405600  0.24304000  0.46154500  1
  C  46  1  0.49109500  0.20561900  0.48844600  1
  C  47  1  0.51911500  0.21001300  0.52176000  1
  C  49  1  0.44224800  0.26095300  0.43300200  1
  C  50  1  0.40544400  0.23681300  0.46078100  1
  C  51  1  0.38090600  0.25739400  0.47675100  1
  C  52  1  0.39336400  0.30321400  0.46609700  1
  C  53  1  0.43005400  0.32779200  0.43868800  1
  C  54  1  0.45439100  0.30700600  0.42256500  1
  C  55  1  0.50880400  0.26439900  0.37998900  1
  C  56  1  0.44383200  0.18337500  0.40360200  1
  C  57  1  0.39769700  0.16421600  0.38930200  1
  C  58  1  0.37388700  0.11916300  0.37298700  1
  C  59  1  0.39551400  0.09190800  0.37018000  1
  C  60  1  0.44187900  0.11127700  0.38359000  1
  C  61  1  0.46586400  0.15650100  0.39939100  1
  C  62  1  0.55686400  0.27932000  0.37995600  1
  C  63  1  0.58531900  0.30402600  0.34734600  1
  C  64  1  0.56637800  0.31122300  0.31185200  1
  C  65  1  0.51774500  0.29308500  0.31049800  1
  C  66  1  0.48949200  0.27012000  0.34391100  1
  C  83  1  0.69360400  0.44150000  0.19575200  1
  C  84  1  0.72290900  0.43211700  0.17114300  1
  C  85  1  0.74920000  0.46173000  0.13958600  1
  C  86  1  0.74352000  0.49958800  0.12822800  1
  C  87  1  0.71902000  0.51252500  0.15510500  1
  C  88  1  0.69543100  0.48453400  0.18844200  1
  C  90  1  0.82323600  0.56137600  0.09966400  1
  C  91  1  0.83590200  0.59817900  0.12744900  1
  C  92  1  0.88102200  0.62271300  0.14341200  1
  C  93  1  0.91439100  0.61026800  0.13274900  1
  C  94  1  0.90227000  0.57357500  0.10534000  1
  C  95  1  0.85714700  0.54923700  0.08922000  1
  C  96  1  0.76010600  0.49478900  0.04668100  1
  C  97  1  0.74407900  0.55979600  0.07026100  1
  C  98  1  0.77106000  0.60593500  0.05597000  1
  C  99  1  0.74982700  0.62975100  0.03965400  1
  C  100  1  0.70094800  0.60813300  0.03684200  1
  C  101  1  0.67394100  0.56177000  0.05025700  1
  C  102  1  0.69517600  0.53777100  0.06604000  1
  C  103  1  0.72697900  0.44672500  0.04668100  1
  C  104  1  0.72322400  0.41824200  0.01408900  1
  C  105  1  0.74937600  0.43715400  0.97860100  1
  C  106  1  0.77984700  0.48578900  0.97720100  1
  C  107  1  0.78513400  0.51407000  0.01059100  1
  C  124  1  0.25304100  0.69181000  0.36237700  1
  C  125  1  0.29172400  0.72110500  0.33776300  1
  C  126  1  0.28840000  0.74739300  0.30620600  1
  C  127  1  0.24486000  0.74171800  0.29485700  1
  C  128  1  0.20743200  0.71724600  0.32174800  1
  C  129  1  0.21182900  0.69362900  0.35506800  1
  C  131  1  0.26279900  0.82144900  0.26628100  1
  C  132  1  0.23866200  0.83409300  0.29408400  1
  C  133  1  0.25926500  0.87919400  0.31009200  1
  C  134  1  0.30508700  0.91256000  0.29945000  1
  C  135  1  0.32967400  0.90043600  0.27205900  1
  C  136  1  0.30887000  0.85533900  0.25588500  1
  C  137  1  0.26623300  0.75830600  0.21331000  1
  C  138  1  0.18520600  0.74228300  0.23690100  1
  C  139  1  0.16604800  0.76926500  0.22261000  1
  C  140  1  0.12099700  0.74802800  0.20629200  1
  C  141  1  0.09374200  0.69915100  0.20347600  1
  C  142  1  0.11308500  0.67214200  0.21691900  1
  C  143  1  0.15832500  0.69338100  0.23269000  1
  C  144  1  0.28113100  0.72515000  0.21328800  1
  C  145  1  0.30586800  0.72141000  0.18070000  1
  C  146  1  0.31309400  0.74755800  0.14520800  1
  C  147  1  0.29493300  0.77803200  0.14381900  1
  C  148  1  0.27196000  0.78333000  0.17722200  1
  C  165  1  0.44332800  0.75058900  0.02907500  1
  C  166  1  0.43392300  0.71191100  0.00444500  1
  C  167  1  0.46351800  0.71525300  0.97286500  1
  C  168  1  0.50141000  0.75878300  0.96153600  1
  C  169  1  0.51437100  0.79619900  0.98844000  1
  C  170  1  0.48635600  0.79180000  0.02176000  1
  C  172  1  0.56320500  0.74085200  0.93294900  1
  C  173  1  0.60000900  0.76500400  0.96073300  1
  C  174  1  0.62454700  0.74442400  0.97670400  1
  C  175  1  0.61204500  0.69857700  0.96610700  1
  C  176  1  0.57531000  0.67397200  0.93874100  1
  C  177  1  0.55098500  0.69475900  0.92260100  1
  C  178  1  0.49662300  0.73740900  0.87998600  1
  C  179  1  0.56159600  0.81844300  0.90357900  1
  C  180  1  0.60773300  0.83760100  0.88927800  1
  C  181  1  0.63154100  0.88265800  0.87297000  1
  C  182  1  0.60991700  0.90991400  0.87017600  1
  C  183  1  0.56355900  0.89055500  0.88360900  1
  C  184  1  0.53957200  0.84532400  0.89939700  1
  C  185  1  0.44857200  0.72252600  0.87995700  1
  C  186  1  0.42010000  0.69779500  0.84736500  1
  C  187  1  0.43901900  0.69056200  0.81187600  1
  C  188  1  0.48765400  0.70870700  0.81049800  1
  C  189  1  0.51591900  0.73167200  0.84390400  1
  C  206  1  0.31182500  0.56033500  0.69573400  1
  C  207  1  0.28260600  0.56977400  0.67106200  1
  C  208  1  0.25630100  0.54014900  0.63951700  1
  C  209  1  0.26193200  0.50225500  0.62818900  1
  C  210  1  0.28640400  0.48930100  0.65508400  1
  C  211  1  0.31000800  0.51730700  0.68841200  1
  C  213  1  0.18220000  0.44046600  0.59961600  1
  C  214  1  0.16954700  0.40367400  0.62741000  1
  C  215  1  0.12443600  0.37915300  0.64339500  1
  C  216  1  0.09107800  0.39162900  0.63276700  1
  C  217  1  0.10320700  0.42834700  0.60538200  1
  C  218  1  0.14832300  0.45267700  0.58925300  1
  C  219  1  0.24533900  0.50702900  0.54663900  1
  C  220  1  0.26138000  0.44204500  0.57023700  1
  C  221  1  0.23438300  0.39589400  0.55597000  1
  C  222  1  0.25561500  0.37208600  0.53963000  1
  C  223  1  0.30449200  0.39369700  0.53681800  1
  C  224  1  0.33150800  0.44005700  0.55024600  1
  C  225  1  0.31028100  0.46405800  0.56603800  1
  C  226  1  0.27849900  0.55508000  0.54660900  1
  C  227  1  0.28225700  0.58354900  0.51400800  1
  C  228  1  0.25610400  0.56462700  0.47851700  1
  C  229  1  0.22560300  0.51599400  0.47715100  1
  C  230  1  0.22030500  0.48773000  0.51055800  1
  C  247  1  0.75061200  0.34130700  0.89181300  1
  C  248  1  0.70813400  0.33622400  0.90641400  1
  C  249  1  0.70576000  0.36907100  0.93197900  1
  C  250  1  0.74774100  0.40709100  0.94706600  1
  C  251  1  0.79029600  0.41241000  0.93307900  1
  C  253  1  0.79156700  0.38125800  0.90536100  1
  C  256  1  0.65869600  0.36266800  0.93962200  1
  C  260  1  0.59529600  0.25298500  0.55841800  1
  C  261  1  0.63272200  0.29546300  0.57298300  1
  C  262  1  0.66795900  0.29784200  0.59853300  1
  C  263  1  0.66396400  0.25586100  0.61365400  1
  C  264  1  0.62672200  0.21330000  0.59968200  1
  C  266  1  0.59429100  0.21203100  0.57197500  1
  C  269  1  0.70865400  0.34489900  0.60611900  1
  C  273  1  0.66224300  0.40835000  0.22510400  1
  C  274  1  0.66733100  0.37095900  0.23969900  1
  C  275  1  0.63447900  0.33572000  0.26524900  1
  C  276  1  0.59642400  0.33963600  0.28030400  1
  C  277  1  0.59110400  0.37687800  0.26632900  1
  C  279  1  0.62227400  0.40933000  0.23864000  1
  C  282  1  0.64089600  0.29506600  0.27288300  1
  C  286  1  0.25482400  0.66046000  0.39174500  1
  C  287  1  0.29730900  0.66556400  0.40634800  1
  C  288  1  0.29970200  0.63273400  0.43192600  1
  C  289  1  0.25772900  0.59468700  0.44698400  1
  C  290  1  0.21516200  0.58935100  0.43300800  1
  C  292  1  0.21387700  0.62050400  0.40529900  1
  C  295  1  0.34677100  0.63913200  0.43952700  1
  C  299  1  0.41018700  0.74880900  0.05843000  1
  C  300  1  0.37281800  0.70632700  0.07304900  1
  C  301  1  0.33757700  0.70393900  0.09860200  1
  C  302  1  0.34149800  0.74591500  0.11365700  1
  C  303  1  0.37875200  0.78847800  0.09969400  1
  C  305  1  0.41119000  0.78975700  0.07199000  1
  C  308  1  0.29692700  0.65687100  0.10623900  1
  C  312  1  0.34318000  0.59347400  0.72509700  1
  C  313  1  0.33807900  0.63085400  0.73970100  1
  C  314  1  0.37092700  0.66608700  0.76526100  1
  C  315  1  0.40897200  0.66215800  0.78032200  1
  C  316  1  0.41427600  0.62489700  0.76637100  1
  C  318  1  0.38311800  0.59245900  0.73866600  1
  C  321  1  0.36451700  0.70674400  0.77289500  1
  C  325  1  0.63351100  0.95523400  0.85322600  1
  C  326  1  0.63472700  0.99317700  0.87360100  1
  C  327  1  0.65692200  0.03837300  0.85688000  1
  C  328  1  0.67813900  0.04531700  0.81839300  1
  C  329  1  0.67704000  0.00758000  0.79790900  1
  C  331  1  0.65517200  0.96311000  0.81522900  1
  C  334  1  0.65698300  0.07708000  0.87950600  1
  C  338  1  0.32619700  0.37008500  0.51986500  1
  C  339  1  0.36291900  0.36885600  0.54023800  1
  C  340  1  0.38591500  0.34665800  0.52351300  1
  C  341  1  0.37162300  0.32543100  0.48502900  1
  C  342  1  0.33498900  0.32654000  0.46455000  1
  C  344  1  0.31238600  0.34840100  0.48188000  1
  C  347  1  0.42457200  0.34660600  0.54612800  1
  C  351  1  0.04842600  0.67744100  0.18652300  1
  C  352  1  0.01047700  0.64070800  0.20689000  1
  C  353  1  0.96528300  0.61771200  0.19016600  1
  C  354  1  0.95834500  0.63200300  0.15168400  1
  C  355  1  0.99608900  0.66864200  0.13120600  1
  C  357  1  0.04055000  0.69125600  0.14854100  1
  C  360  1  0.92657500  0.57905300  0.21278000  1
  C  364  1  0.37191700  0.04659300  0.35322700  1
  C  365  1  0.37071100  0.00864800  0.37359700  1
  C  366  1  0.34852200  0.96345500  0.35687000  1
  C  367  1  0.32729900  0.95651500  0.31838500  1
  C  368  1  0.32839500  0.99425300  0.29790700  1
  C  370  1  0.35024300  0.03871600  0.31523600  1
  C  373  1  0.34847600  0.92475200  0.37949000  1
  C  377  1  0.67923400  0.63173900  0.01989200  1
  C  378  1  0.64249800  0.63294700  0.04025600  1
  C  379  1  0.61949400  0.65513500  0.02352500  1
  C  380  1  0.63379100  0.67637300  0.98504800  1
  C  381  1  0.67044500  0.67529000  0.96457900  1
  C  383  1  0.69304100  0.65341900  0.98190300  1
  C  386  1  0.58082700  0.65517300  0.04613600  1
  C  390  1  0.95703800  0.32442100  0.68653500  1
  C  391  1  0.99498900  0.36113200  0.70691900  1
  C  392  1  0.04018300  0.38413800  0.69019600  1
  C  393  1  0.04712300  0.36988100  0.65170000  1
  C  394  1  0.00938000  0.33326700  0.63120300  1
  C  396  1  0.96491100  0.31065200  0.64852900  1
  C  399  1  0.07889200  0.42277800  0.71282900  1
