# generated using pymatgen
data_H19(C8N)4
_symmetry_space_group_name_H-M   'P 1'
_cell_length_a   9.98926667
_cell_length_b   68.61010000
_cell_length_c   68.61010000
_cell_angle_alpha   60.00000000
_cell_angle_beta   89.98560000
_cell_angle_gamma   89.98630000
_symmetry_Int_Tables_number   1
_chemical_formula_structural   H19(C8N)4
_chemical_formula_sum   'H228 C384 N48'
_cell_volume   40723.05265026
_cell_formula_units_Z   12
loop_
 _symmetry_equiv_pos_site_id
 _symmetry_equiv_pos_as_xyz
  1  'x, y, z'
loop_
 _atom_site_type_symbol
 _atom_site_label
 _atom_site_symmetry_multiplicity
 _atom_site_fract_x
 _atom_site_fract_y
 _atom_site_fract_z
 _atom_site_occupancy
  C  1  1  0.99848700  0.48749800  0.21770400  1
  C  2  1  0.99846300  0.48750500  0.23778600  1
  C  3  1  0.99690400  0.50983500  0.23302967  1
  C  5  1  0.99999100  0.50982233  0.20012067  1
  C  6  1  0.00147500  0.51660533  0.17681867  1
  C  7  1  0.00050500  0.53933100  0.15904800  1
  C  9  1  0.99968500  0.57706200  0.14018200  1
  C  10  1  0.99821500  0.56975767  0.12447233  1
  C  11  1  0.00071600  0.54655600  0.13607200  1
  C  12  1  0.99992033  0.59982600  0.13519300  1
  C  13  1  0.99908200  0.60667200  0.15166200  1
  C  15  1  0.99772400  0.60668600  0.18458100  1
  C  16  1  0.99708400  0.62900900  0.16700100  1
  C  17  1  0.99973400  0.62900067  0.14690333  1
  C  18  1  0.99694300  0.59985367  0.20789300  1
  C  19  1  0.99717300  0.57709433  0.22567833  1
  C  21  1  0.99642400  0.53936333  0.24456600  1
  C  22  1  0.99613300  0.54660500  0.26030500  1
  C  23  1  0.99866400  0.56980500  0.24868967  1
  C  24  1  0.99540300  0.51663200  0.24953833  1
  C  25  1  0.99223700  0.49942033  0.27268600  1
  C  26  1  0.10708900  0.49439933  0.28636867  1
  C  27  1  0.10555800  0.47662200  0.30881000  1
  C  28  1  0.99070500  0.46288167  0.31823267  1
  C  29  1  0.87571400  0.46829000  0.30432733  1
  C  30  1  0.87575400  0.48636933  0.28205433  1
  C  31  1  0.99569200  0.61694500  0.21400533  1
  C  32  1  0.11121400  0.62988700  0.21138800  1
  C  33  1  0.11176200  0.64584867  0.21856067  1
  C  34  1  0.99849300  0.64906333  0.22912667  1
  C  35  1  0.88275000  0.63609700  0.23140967  1
  C  36  1  0.88056700  0.62054267  0.22373733  1
  C  37  1  0.00099500  0.61690767  0.11198500  1
  C  38  1  0.88540800  0.62984433  0.10167667  1
  C  39  1  0.88472300  0.64580633  0.07854200  1
  C  40  1  0.99792400  0.64903133  0.06474567  1
  C  41  1  0.11372700  0.63606800  0.07541300  1
  C  42  1  0.11602400  0.62050400  0.09863633  1
  C  43  1  0.00452800  0.49938200  0.17089800  1
  C  44  1  0.88959600  0.49436333  0.16225433  1
  C  45  1  0.12101500  0.48633400  0.17455900  1
  C  46  1  0.12093400  0.46824033  0.17038767  1
  C  47  1  0.00588000  0.46283767  0.16190167  1
  C  48  1  0.89103100  0.47658100  0.15759700  1
  C  75  1  0.99785300  0.21742700  0.23775133  1
  C  76  1  0.99792600  0.23750867  0.21766100  1
  C  77  1  0.99628200  0.23275100  0.20008933  1
  C  79  1  0.99932300  0.19984267  0.23301233  1
  C  80  1  0.00072400  0.17654100  0.24953100  1
  C  81  1  0.99967300  0.15877000  0.24457633  1
  C  83  1  0.99895200  0.13990400  0.22571200  1
  C  84  1  0.99744400  0.12419400  0.24872700  1
  C  85  1  0.99990033  0.13579400  0.26032800  1
  C  86  1  0.99922900  0.13491400  0.20793800  1
  C  87  1  0.99851700  0.15138200  0.18462200  1
  C  89  1  0.99716400  0.18430100  0.15168800  1
  C  90  1  0.99655400  0.16672033  0.14694667  1
  C  91  1  0.99923400  0.14662200  0.16705300  1
  C  92  1  0.99633300  0.20761200  0.13520800  1
  C  93  1  0.99654300  0.22539800  0.14018033  1
  C  95  1  0.99576200  0.24428600  0.15902400  1
  C  96  1  0.99552100  0.26002500  0.13604467  1
  C  97  1  0.99793400  0.24840900  0.12445867  1
  C  98  1  0.99476700  0.24925767  0.17678300  1
  C  99  1  0.99160600  0.27240533  0.17084867  1
  C  100  1  0.10645200  0.28608900  0.16217333  1
  C  101  1  0.10492700  0.30853000  0.15751000  1
  C  102  1  0.99008600  0.31795133  0.16184167  1
  C  103  1  0.87515300  0.30403567  0.17037333  1
  C  104  1  0.87509400  0.28177700  0.17452700  1
  C  105  1  0.99508600  0.21372300  0.11200400  1
  C  106  1  0.11063100  0.21111233  0.10167000  1
  C  107  1  0.11117700  0.21828133  0.07853767  1
  C  108  1  0.99787400  0.22882800  0.06476600  1
  C  109  1  0.88208400  0.23109400  0.07546100  1
  C  110  1  0.87996700  0.22345300  0.09868100  1
  C  111  1  0.00038600  0.11170700  0.21406500  1
  C  112  1  0.88482100  0.10138767  0.21145367  1
  C  113  1  0.88420200  0.07825300  0.21862700  1
  C  114  1  0.99745400  0.06446967  0.22917700  1
  C  115  1  0.11328000  0.07514800  0.23144167  1
  C  116  1  0.11547900  0.09837067  0.22379200  1
  C  117  1  0.00381800  0.17062000  0.27267500  1
  C  118  1  0.88889700  0.16198333  0.28635067  1
  C  119  1  0.12032300  0.17428333  0.28204900  1
  C  120  1  0.12033200  0.17009067  0.30432133  1
  C  121  1  0.00530900  0.16160100  0.31822533  1
  C  122  1  0.89039400  0.15731767  0.30879300  1
  C  149  1  0.99910200  0.23747700  0.48778100  1
  C  150  1  0.99907300  0.21738933  0.48778700  1
  C  151  1  0.99742300  0.19981500  0.51011533  1
  C  153  1  0.00056400  0.23273533  0.51010533  1
  C  154  1  0.00199600  0.24925267  0.51689033  1
  C  155  1  0.00098900  0.24429600  0.53961633  1
  C  157  1  0.00034300  0.22542800  0.57734800  1
  C  158  1  0.99879300  0.24844300  0.57004467  1
  C  159  1  0.00117000  0.26004567  0.54684400  1
  C  160  1  0.00061300  0.20765233  0.60011100  1
  C  161  1  0.99991433  0.18433800  0.60695567  1
  C  163  1  0.99852300  0.15140633  0.60696467  1
  C  164  1  0.99796400  0.14666267  0.62928833  1
  C  165  1  0.00061900  0.16676600  0.62928267  1
  C  166  1  0.99764300  0.13492900  0.60013100  1
  C  167  1  0.99776500  0.13990367  0.57737133  1
  C  169  1  0.99684300  0.15874933  0.53964133  1
  C  170  1  0.99652800  0.13577000  0.54688000  1
  C  171  1  0.99899400  0.12418233  0.57008100  1
  C  172  1  0.99580200  0.17651033  0.51691067  1
  C  173  1  0.99246700  0.17057833  0.49969700  1
  C  174  1  0.10720500  0.16189100  0.49466633  1
  C  175  1  0.10549800  0.15722733  0.47688933  1
  C  176  1  0.99058500  0.16157067  0.46315833  1
  C  177  1  0.87576300  0.17011400  0.46856333  1
  C  178  1  0.87591300  0.17428133  0.48665900  1
  C  179  1  0.99632100  0.11172533  0.61722133  1
  C  180  1  0.11184900  0.10137600  0.63015400  1
  C  181  1  0.11229400  0.07824300  0.64612367  1
  C  182  1  0.99893200  0.06448700  0.64934867  1
  C  183  1  0.88319200  0.07519500  0.63638700  1
  C  184  1  0.88107300  0.09842400  0.62083933  1
  C  185  1  0.00171000  0.21377500  0.61719433  1
  C  186  1  0.88610600  0.21115700  0.63012800  1
  C  187  1  0.88540800  0.21832300  0.64609467  1
  C  188  1  0.99860400  0.22888500  0.64932333  1
  C  189  1  0.11444600  0.23116500  0.63636967  1
  C  190  1  0.11671900  0.22352400  0.62079067  1
  C  191  1  0.00503900  0.27239700  0.49966700  1
  C  192  1  0.89009800  0.28606700  0.49464800  1
  C  193  1  0.12154300  0.28177900  0.48662333  1
  C  194  1  0.12138500  0.30403533  0.46851300  1
  C  195  1  0.00637000  0.31793867  0.46312233  1
  C  196  1  0.89152900  0.30850600  0.47686700  1
  C  223  1  0.99757400  0.47409933  0.74446267  1
  C  224  1  0.99763800  0.47409300  0.72438033  1
  C  225  1  0.99608300  0.45176500  0.72913400  1
  C  227  1  0.99904900  0.45177333  0.76204500  1
  C  228  1  0.00044500  0.44498900  0.78534800  1
  C  229  1  0.99939200  0.42226267  0.80311700  1
  C  231  1  0.99864300  0.38453300  0.82197967  1
  C  232  1  0.99716200  0.39183433  0.83769133  1
  C  233  1  0.99954300  0.41503533  0.82609367  1
  C  234  1  0.99892400  0.36176900  0.82696700  1
  C  235  1  0.99821600  0.35492400  0.81049700  1
  C  237  1  0.99705400  0.35491400  0.77757533  1
  C  238  1  0.99642400  0.33259100  0.79515433  1
  C  239  1  0.99898100  0.33259767  0.81525333  1
  C  240  1  0.99628300  0.36174800  0.75426333  1
  C  241  1  0.99645200  0.38450767  0.73647900  1
  C  243  1  0.99560200  0.42223867  0.71759367  1
  C  244  1  0.99539300  0.41500000  0.70185367  1
  C  245  1  0.99786900  0.39179933  0.71346700  1
  C  246  1  0.99456900  0.44496900  0.71262433  1
  C  247  1  0.99139700  0.46218433  0.68947767  1
  C  248  1  0.10623600  0.46719700  0.67578667  1
  C  249  1  0.10469600  0.48497800  0.65334600  1
  C  250  1  0.98983600  0.49872200  0.64393133  1
  C  251  1  0.87490200  0.49333033  0.65785133  1
  C  252  1  0.87489200  0.47523333  0.68011633  1
  C  253  1  0.99517100  0.34465600  0.74815133  1
  C  254  1  0.11080200  0.33173200  0.75075900  1
  C  255  1  0.11151300  0.31577000  0.74358667  1
  C  256  1  0.99830600  0.31253667  0.73303033  1
  C  257  1  0.88246100  0.32548800  0.73075400  1
  C  258  1  0.88011700  0.34104200  0.73842600  1
  C  259  1  0.00003400  0.34468633  0.85017367  1
  C  260  1  0.88453200  0.33175400  0.86049900  1
  C  261  1  0.88391200  0.31579200  0.88363300  1
  C  262  1  0.99716300  0.31256433  0.89741233  1
  C  263  1  0.11293600  0.32552800  0.88672900  1
  C  264  1  0.11521600  0.34107400  0.86350000  1
  C  265  1  0.00349900  0.46221100  0.79127000  1
  C  266  1  0.88857800  0.46723333  0.79992433  1
  C  267  1  0.11999200  0.47525333  0.78760533  1
  C  268  1  0.11991700  0.49334400  0.79177967  1
  C  269  1  0.00487500  0.49875133  0.80027467  1
  C  270  1  0.89001300  0.48501633  0.80457900  1
  C  297  1  0.99685200  0.74417733  0.72440033  1
  C  298  1  0.99684200  0.72409600  0.74449000  1
  C  299  1  0.99530100  0.72885200  0.76206400  1
  C  301  1  0.99833400  0.76176100  0.72914100  1
  C  302  1  0.99990133  0.78506233  0.71262200  1
  C  303  1  0.99893300  0.80283500  0.71757467  1
  C  305  1  0.99826500  0.82170167  0.73643867  1
  C  306  1  0.99678200  0.83741100  0.71342300  1
  C  307  1  0.99918400  0.82581100  0.70182200  1
  C  308  1  0.99856300  0.82669300  0.75421133  1
  C  309  1  0.99778400  0.81022500  0.77752767  1
  C  311  1  0.99647200  0.77730533  0.81046167  1
  C  312  1  0.99590300  0.79488600  0.81520300  1
  C  313  1  0.99852900  0.81498267  0.79509667  1
  C  314  1  0.99571300  0.75399433  0.82694167  1
  C  315  1  0.99584700  0.73620867  0.82196900  1
  C  317  1  0.99494200  0.71731900  0.80312667  1
  C  318  1  0.99471600  0.70158067  0.82610733  1
  C  319  1  0.99734900  0.71319700  0.83769167  1
  C  320  1  0.99384500  0.71234533  0.78536900  1
  C  321  1  0.99068500  0.68919800  0.79130600  1
  C  322  1  0.10555200  0.67551133  0.79996533  1
  C  323  1  0.10403500  0.65307067  0.80462800  1
  C  324  1  0.98917500  0.64365100  0.80031300  1
  C  325  1  0.87417100  0.65755833  0.79181800  1
  C  326  1  0.87420200  0.67983100  0.78762500  1
  C  327  1  0.99462200  0.74788333  0.85014467  1
  C  328  1  0.11024300  0.75049433  0.86045267  1
  C  329  1  0.11095400  0.74332200  0.88358667  1
  C  330  1  0.99775500  0.73276200  0.89738400  1
  C  331  1  0.88191100  0.73048400  0.88671900  1
  C  332  1  0.87956800  0.73815667  0.86349200  1
  C  333  1  0.99990933  0.84990000  0.74808400  1
  C  334  1  0.88438800  0.86024100  0.75070467  1
  C  335  1  0.88392100  0.88337400  0.74353833  1
  C  336  1  0.99724300  0.89713600  0.73298467  1
  C  337  1  0.11292500  0.88643800  0.73069133  1
  C  338  1  0.11499800  0.86321533  0.73834367  1
  C  339  1  0.00295700  0.79098133  0.68947867  1
  C  340  1  0.88805500  0.79962900  0.67580567  1
  C  341  1  0.11949200  0.78731800  0.68010233  1
  C  342  1  0.11949100  0.79149200  0.65783767  1
  C  343  1  0.00446900  0.79998400  0.64393667  1
  C  344  1  0.88956800  0.80428933  0.65336500  1
  C  371  1  0.99801900  0.72412667  0.47438000  1
  C  372  1  0.99801400  0.74421600  0.47437167  1
  C  373  1  0.99639200  0.76178933  0.45204100  1
  C  375  1  0.99955900  0.72886733  0.45205467  1
  C  376  1  0.00102000  0.71234700  0.44527200  1
  C  377  1  0.00000100  0.71730367  0.42254600  1
  C  379  1  0.99928400  0.73617033  0.38481500  1
  C  380  1  0.99780300  0.71315667  0.39211833  1
  C  381  1  0.00020500  0.70155400  0.41531967  1
  C  382  1  0.99955800  0.75394567  0.36205167  1
  C  383  1  0.99883400  0.77726133  0.35520367  1
  C  385  1  0.99744500  0.81019433  0.35519100  1
  C  386  1  0.99687200  0.81493700  0.33286800  1
  C  387  1  0.99956800  0.79483033  0.33287667  1
  C  388  1  0.99657800  0.82667400  0.36202233  1
  C  389  1  0.99672200  0.82169900  0.38478200  1
  C  391  1  0.99584200  0.80285500  0.42251300  1
  C  392  1  0.99555200  0.82583433  0.41527367  1
  C  393  1  0.99804000  0.83742100  0.39207200  1
  C  394  1  0.99480100  0.78509467  0.44524267  1
  C  395  1  0.99147800  0.79102867  0.46245633  1
  C  396  1  0.10623600  0.79970700  0.46748100  1
  C  397  1  0.10454100  0.80437233  0.48525733  1
  C  398  1  0.98962700  0.80003800  0.49899233  1
  C  399  1  0.87479300  0.79150100  0.49359467  1
  C  400  1  0.87490200  0.78734600  0.47549000  1
  C  401  1  0.99534300  0.84987800  0.34492900  1
  C  402  1  0.11090700  0.86020600  0.33199400  1
  C  403  1  0.11147300  0.88333900  0.31603167  1
  C  404  1  0.99817300  0.89711600  0.31280200  1
  C  405  1  0.88235100  0.88642700  0.32575100  1
  C  406  1  0.88021900  0.86320700  0.34132800  1
  C  407  1  0.00073400  0.74781967  0.34497033  1
  C  408  1  0.88516800  0.75043700  0.33203667  1
  C  409  1  0.88455200  0.74326100  0.31607800  1
  C  410  1  0.99780900  0.73270300  0.31284933  1
  C  411  1  0.11362500  0.73043333  0.32579700  1
  C  412  1  0.11582800  0.73808600  0.34136633  1
  C  413  1  0.00407000  0.68920400  0.46249433  1
  C  414  1  0.88913700  0.67553733  0.46752000  1
  C  415  1  0.12052300  0.67982100  0.47554900  1
  C  416  1  0.12045900  0.65755000  0.49363233  1
  C  417  1  0.00541500  0.64365633  0.49903533  1
  C  418  1  0.89056900  0.65309633  0.48529867  1
  C  445  1  0.00493900  0.34028133  0.44393833  1
  C  446  1  0.12098400  0.35402800  0.43667167  1
  C  447  1  0.12046300  0.37524567  0.41695367  1
  C  448  1  0.00140600  0.38338700  0.40431500  1
  C  450  1  0.88844100  0.34945767  0.43063400  1
  C  451  1  0.99552100  0.40404900  0.38366600  1
  C  452  1  0.87643300  0.41668067  0.37551733  1
  C  453  1  0.87595400  0.43641000  0.35430900  1
  C  454  1  0.99206900  0.44369333  0.34057267  1
  C  455  1  0.10856600  0.43038500  0.34975000  1
  C  463  1  0.00445000  0.44364933  0.15875033  1
  C  464  1  0.12048200  0.43638667  0.15225333  1
  C  465  1  0.11994700  0.41666867  0.15075233  1
  C  466  1  0.00089500  0.40402867  0.15526433  1
  C  468  1  0.88795500  0.43034467  0.16288933  1
  C  469  1  0.99497700  0.38337800  0.15525500  1
  C  470  1  0.87586500  0.37523000  0.15078700  1
  C  471  1  0.87536400  0.35402100  0.15226467  1
  C  472  1  0.99147800  0.34028533  0.15870567  1
  C  473  1  0.10799900  0.34946267  0.16281967  1
  C  481  1  0.00396700  0.15842667  0.34057533  1
  C  482  1  0.12005300  0.15193100  0.35431200  1
  C  483  1  0.11964100  0.15043000  0.37553067  1
  C  484  1  0.00067500  0.15495767  0.38367500  1
  C  486  1  0.88752600  0.16256400  0.34976333  1
  C  487  1  0.99490100  0.15496300  0.40432900  1
  C  488  1  0.87587200  0.15050600  0.41697000  1
  C  489  1  0.87554300  0.15199200  0.43669700  1
  C  490  1  0.99177800  0.15841667  0.44397033  1
  C  491  1  0.10821100  0.16252100  0.43065267  1
  C  499  1  0.00398900  0.62130900  0.51821367  1
  C  500  1  0.12004300  0.60755800  0.52547300  1
  C  501  1  0.11952600  0.58633900  0.54519067  1
  C  502  1  0.00046900  0.57819800  0.55783200  1
  C  504  1  0.88746700  0.61212900  0.53151400  1
  C  505  1  0.99458000  0.55754700  0.57849200  1
  C  506  1  0.87549800  0.54492100  0.58665167  1
  C  507  1  0.87504100  0.52519300  0.60786400  1
  C  508  1  0.99117700  0.51790800  0.62158900  1
  C  509  1  0.10766000  0.53121300  0.61240000  1
  C  517  1  0.00343800  0.51794000  0.80342700  1
  C  518  1  0.11948400  0.52520300  0.80990800  1
  C  519  1  0.11896200  0.54492333  0.81140400  1
  C  520  1  0.99997100  0.55756667  0.80690333  1
  C  522  1  0.88694600  0.53125133  0.79929267  1
  C  523  1  0.99401400  0.57821667  0.80691367  1
  C  524  1  0.87493200  0.58636867  0.81139767  1
  C  525  1  0.87444200  0.60757900  0.80991800  1
  C  526  1  0.99054800  0.62130967  0.80346467  1
  C  527  1  0.10704800  0.61212967  0.79933233  1
  C  535  1  0.00313800  0.80313900  0.62159567  1
  C  536  1  0.11921200  0.80964167  0.60784767  1
  C  537  1  0.11879300  0.81114300  0.58662867  1
  C  538  1  0.99988033  0.80662667  0.57848900  1
  C  540  1  0.88671500  0.79899800  0.61241700  1
  C  541  1  0.99403900  0.80663167  0.55783000  1
  C  542  1  0.87498700  0.81109233  0.54519933  1
  C  543  1  0.87464200  0.80961133  0.52546967  1
  C  544  1  0.99084800  0.80317633  0.51819000  1
  C  545  1  0.10730000  0.79906767  0.53149633  1
  C  553  1  0.00249600  0.66396467  0.23816733  1
  C  554  1  0.12056800  0.66691200  0.24788400  1
  C  555  1  0.12159900  0.68035100  0.25804467  1
  C  556  1  0.00213500  0.69075800  0.25918200  1
  C  558  1  0.88724100  0.67555800  0.23904000  1
  C  559  1  0.99403000  0.70268500  0.27112300  1
  C  560  1  0.87457300  0.70381333  0.28153867  1
  C  561  1  0.87568300  0.71394000  0.29500800  1
  C  562  1  0.99375500  0.72366000  0.29795000  1
  C  563  1  0.10896200  0.72281100  0.28633567  1
  C  571  1  0.00187700  0.23787200  0.04082300  1
  C  572  1  0.11998300  0.24757000  0.02815300  1
  C  573  1  0.12104500  0.25771000  0.00455500  1
  C  574  1  0.00155400  0.25885900  0.99301867  1
  C  576  1  0.88666400  0.23871800  0.02836900  1
  C  577  1  0.99341900  0.27081000  0.96915167  1
  C  578  1  0.87392300  0.28121000  0.95762100  1
  C  579  1  0.87502300  0.29469400  0.93402600  1
  C  580  1  0.99312000  0.29765900  0.92135367  1
  C  581  1  0.10832400  0.28603367  0.93380167  1
  C  589  1  0.00280700  0.04054400  0.66424833  1
  C  590  1  0.12081400  0.02785300  0.66720933  1
  C  591  1  0.12173500  0.00425500  0.68067133  1
  C  592  1  0.00220500  0.99274200  0.69107600  1
  C  594  1  0.88753500  0.02811200  0.67586233  1
  C  595  1  0.99395000  0.96887600  0.70301333  1
  C  596  1  0.87437300  0.95736300  0.70415300  1
  C  597  1  0.87532400  0.93376700  0.71426600  1
  C  598  1  0.99334800  0.92107400  0.72397333  1
  C  599  1  0.10866100  0.93350600  0.72312967  1
  C  607  1  0.00247800  0.29763500  0.72399100  1
  C  608  1  0.12061200  0.29470400  0.71426567  1
  C  609  1  0.12181400  0.28125000  0.70412233  1
  C  610  1  0.00242600  0.27083000  0.70299100  1
  C  612  1  0.88733100  0.28602133  0.72313100  1
  C  613  1  0.99446000  0.25888800  0.69106333  1
  C  614  1  0.87503200  0.25773400  0.68066567  1
  C  615  1  0.87627900  0.24761767  0.66718533  1
  C  616  1  0.99444200  0.23791867  0.66423033  1
  C  617  1  0.10960000  0.23877700  0.67584200  1
  C  625  1  0.00191600  0.72372133  0.92132600  1
  C  626  1  0.12005100  0.71399700  0.93397300  1
  C  627  1  0.12122400  0.70383500  0.95757167  1
  C  628  1  0.00184600  0.70270567  0.96913333  1
  C  630  1  0.88676500  0.72285800  0.93380767  1
  C  631  1  0.99386100  0.69076400  0.99300233  1
  C  632  1  0.87444600  0.68035300  0.00455800  1
  C  633  1  0.87565400  0.66688200  0.02815467  1
  C  634  1  0.99378000  0.66393933  0.04080667  1
  C  635  1  0.10896100  0.67554300  0.02832900  1
  C  643  1  0.00217700  0.92105900  0.29790133  1
  C  644  1  0.12026300  0.93372500  0.29494133  1
  C  645  1  0.12135900  0.95732200  0.28147233  1
  C  646  1  0.00187100  0.96886200  0.27107800  1
  C  648  1  0.88697600  0.93351700  0.28628567  1
  C  649  1  0.99373900  0.99273000  0.25915800  1
  C  650  1  0.87424300  0.00426600  0.25802700  1
  C  651  1  0.87534200  0.02786167  0.24791267  1
  C  652  1  0.99341800  0.04053200  0.23819500  1
  C  653  1  0.10863600  0.02807500  0.23903200  1
  H  49  1  0.80598700  0.47373333  0.15110767  1
  H  50  1  0.80363100  0.50351733  0.15946433  1
  H  51  1  0.20526300  0.45852800  0.17448400  1
  H  52  1  0.20521400  0.48937200  0.18113000  1
  H  53  1  0.99789000  0.47323000  0.21653067  1
  H  54  1  0.99911400  0.47324300  0.25323200  1
  H  55  1  0.99843900  0.53863167  0.20216533  1
  H  56  1  0.99837300  0.57787800  0.18253033  1
  H  57  1  0.00116400  0.53682800  0.12865800  1
  H  58  1  0.99627200  0.57942733  0.10733133  1
  H  59  1  0.80044400  0.62758800  0.11091933  1
  H  60  1  0.79924000  0.65495500  0.07187067  1
  H  61  1  0.20074000  0.61116800  0.10558800  1
  H  62  1  0.19700600  0.63713500  0.06626500  1
  H  63  1  0.00119400  0.64323700  0.13143900  1
  H  64  1  0.99587100  0.64325200  0.16821800  1
  H  65  1  0.99566200  0.53688700  0.27744800  1
  H  66  1  0.00049400  0.57948500  0.25615100  1
  H  67  1  0.19622500  0.62763600  0.20440700  1
  H  68  1  0.19719400  0.65500500  0.21608800  1
  H  69  1  0.79593700  0.61118700  0.22613300  1
  H  70  1  0.79943300  0.63715400  0.23948900  1
  H  71  1  0.79158300  0.48941800  0.27243700  1
  H  72  1  0.79138800  0.45857900  0.30992600  1
  H  73  1  0.19055400  0.47377200  0.31815967  1
  H  74  1  0.19306500  0.50354800  0.28001800  1
  H  123  1  0.80536200  0.15082900  0.31814000  1
  H  124  1  0.80290000  0.15919800  0.27999700  1
  H  125  1  0.20473400  0.17416733  0.30993167  1
  H  126  1  0.20456100  0.18082800  0.27243633  1
  H  127  1  0.99731300  0.21625600  0.25319100  1
  H  128  1  0.99855300  0.25295500  0.21647500  1
  H  129  1  0.99763400  0.20188533  0.20215833  1
  H  130  1  0.99777500  0.18225100  0.18254700  1
  H  131  1  0.00039000  0.12837933  0.27746967  1
  H  132  1  0.99557200  0.10705200  0.25619800  1
  H  133  1  0.79983200  0.11062600  0.20447500  1
  H  134  1  0.79873100  0.07157367  0.21616000  1
  H  135  1  0.20013700  0.10532600  0.22618500  1
  H  136  1  0.19652000  0.06600300  0.23953700  1
  H  137  1  0.00049400  0.13115700  0.16828200  1
  H  138  1  0.99521200  0.16793567  0.13148733  1
  H  139  1  0.99488700  0.27716767  0.12861867  1
  H  140  1  0.99978300  0.25587000  0.10731733  1
  H  141  1  0.19564400  0.20413633  0.11089600  1
  H  142  1  0.19663500  0.21581700  0.07184800  1
  H  143  1  0.79530200  0.22583800  0.10564633  1
  H  144  1  0.79882000  0.23919100  0.06632600  1
  H  145  1  0.79100200  0.27214733  0.18113933  1
  H  146  1  0.79082100  0.30963900  0.17448467  1
  H  147  1  0.18991200  0.31788133  0.15099933  1
  H  148  1  0.19243000  0.27973733  0.15936867  1
  H  197  1  0.80649900  0.31785200  0.47402600  1
  H  198  1  0.80413700  0.27970833  0.50380333  1
  H  199  1  0.20577400  0.30965433  0.45881600  1
  H  200  1  0.20571900  0.27216067  0.48965667  1
  H  201  1  0.99850300  0.25291933  0.47351333  1
  H  202  1  0.99963400  0.21620533  0.47352467  1
  H  203  1  0.99880800  0.20188000  0.53891400  1
  H  204  1  0.99911400  0.18226600  0.57815933  1
  H  205  1  0.00167100  0.27718833  0.53711667  1
  H  206  1  0.99690900  0.25591333  0.57971600  1
  H  207  1  0.80116400  0.20416967  0.62787400  1
  H  208  1  0.79990700  0.21585567  0.65523833  1
  H  209  1  0.20142000  0.22591500  0.61144833  1
  H  210  1  0.19763600  0.23927033  0.63741467  1
  H  211  1  0.00197700  0.16799300  0.64352000  1
  H  212  1  0.99666400  0.13120100  0.64353133  1
  H  213  1  0.99570000  0.12834600  0.53716167  1
  H  214  1  0.00075400  0.10704000  0.57976100  1
  H  215  1  0.19692400  0.11059067  0.62789433  1
  H  216  1  0.19774700  0.07154133  0.65526633  1
  H  217  1  0.79648800  0.10539300  0.61147400  1
  H  218  1  0.79984100  0.06607200  0.63744533  1
  H  219  1  0.79184200  0.18087700  0.48971200  1
  H  220  1  0.79134200  0.17421967  0.45887500  1
  H  221  1  0.19039900  0.15070100  0.47403700  1
  H  222  1  0.19322100  0.15907200  0.50380900  1
  H  271  1  0.80497800  0.48786600  0.81107700  1
  H  272  1  0.80260400  0.45808700  0.80271367  1
  H  273  1  0.20425200  0.50305300  0.78767833  1
  H  274  1  0.20418900  0.47221200  0.78102800  1
  H  275  1  0.99695300  0.48836667  0.74563700  1
  H  276  1  0.99827000  0.48835567  0.70893500  1
  H  277  1  0.99745400  0.42296567  0.75999733  1
  H  278  1  0.99753300  0.38372000  0.77962900  1
  H  279  1  0.00024600  0.42476133  0.83351033  1
  H  280  1  0.99540100  0.38216167  0.85483400  1
  H  281  1  0.79952200  0.33401900  0.85126700  1
  H  282  1  0.79843000  0.30665000  0.89031900  1
  H  283  1  0.19982800  0.35043967  0.85654767  1
  H  284  1  0.19620500  0.32446833  0.89586967  1
  H  285  1  0.00030400  0.31835933  0.83071800  1
  H  286  1  0.99517100  0.31834767  0.79393633  1
  H  287  1  0.99465000  0.42471900  0.68471100  1
  H  288  1  0.99962300  0.38212100  0.70600400  1
  H  289  1  0.19577900  0.33400000  0.75772800  1
  H  290  1  0.19703100  0.30663200  0.74604633  1
  H  291  1  0.79541700  0.35038433  0.73603767  1
  H  292  1  0.79918200  0.32441733  0.72268233  1
  H  293  1  0.79075100  0.47219100  0.68974400  1
  H  294  1  0.79051100  0.50302767  0.65224933  1
  H  295  1  0.18965900  0.48781833  0.64398633  1
  H  296  1  0.19221900  0.45804633  0.68213000  1
  H  345  1  0.80454700  0.81077900  0.64402067  1
  H  346  1  0.80206300  0.80242167  0.68216100  1
  H  347  1  0.20385200  0.78739433  0.65222833  1
  H  348  1  0.20367200  0.78074433  0.68971867  1
  H  349  1  0.99625400  0.74535067  0.70895933  1
  H  350  1  0.99750900  0.70864967  0.74567433  1
  H  351  1  0.99679800  0.75971800  0.75999467  1
  H  352  1  0.99699400  0.77935500  0.77960333  1
  H  353  1  0.99961500  0.83322367  0.68468100  1
  H  354  1  0.99490100  0.85455300  0.70595200  1
  H  355  1  0.79935200  0.85102100  0.75768367  1
  H  356  1  0.79851100  0.89006900  0.74601100  1
  H  357  1  0.19963900  0.85624000  0.73596567  1
  H  358  1  0.19628500  0.89556200  0.72262367  1
  H  359  1  0.00001400  0.83044833  0.79386833  1
  H  360  1  0.99477100  0.79367100  0.83066267  1
  H  361  1  0.99423200  0.68443800  0.83353333  1
  H  362  1  0.99924800  0.70573633  0.85483267  1
  H  363  1  0.19520400  0.75747067  0.85120733  1
  H  364  1  0.19645500  0.74578900  0.89025733  1
  H  365  1  0.79486700  0.73576500  0.85654633  1
  H  366  1  0.79864000  0.72240900  0.89586800  1
  H  367  1  0.79002000  0.68945100  0.78105767  1
  H  368  1  0.78984100  0.65196300  0.78770667  1
  H  369  1  0.18903800  0.64371900  0.81112700  1
  H  370  1  0.19153100  0.68186100  0.80276100  1
  H  419  1  0.80552800  0.64375800  0.48814500  1
  H  420  1  0.80318100  0.68189933  0.45836733  1
  H  421  1  0.20481900  0.65193233  0.50333333  1
  H  422  1  0.20476400  0.68942533  0.47249267  1
  H  423  1  0.99745800  0.70868667  0.48864700  1
  H  424  1  0.99856300  0.74540167  0.48863233  1
  H  425  1  0.99788600  0.75972167  0.42324467  1
  H  426  1  0.99803500  0.77933500  0.38399867  1
  H  427  1  0.00075500  0.68441100  0.42504700  1
  H  428  1  0.99594200  0.70568600  0.38244733  1
  H  429  1  0.80018200  0.75741867  0.33429267  1
  H  430  1  0.79908200  0.74572833  0.30693167  1
  H  431  1  0.20046900  0.73568767  0.35071867  1
  H  432  1  0.19685500  0.72232733  0.32475533  1
  H  433  1  0.00085500  0.79360200  0.31863967  1
  H  434  1  0.99553200  0.83039700  0.31862433  1
  H  435  1  0.99485600  0.83325900  0.42499100  1
  H  436  1  0.99991433  0.85456200  0.38239333  1
  H  437  1  0.19592500  0.85097500  0.33425000  1
  H  438  1  0.19694500  0.89002500  0.30688367  1
  H  439  1  0.79553700  0.85624500  0.35067200  1
  H  440  1  0.79908100  0.89556700  0.32470700  1
  H  441  1  0.79087100  0.78073133  0.47246167  1
  H  442  1  0.79041100  0.78738800  0.50329733  1
  H  443  1  0.18945900  0.81088767  0.48810800  1
  H  444  1  0.19225900  0.80251600  0.45833667  1
  H  457  1  0.19558800  0.43401367  0.34078833  1
  H  458  1  0.79050600  0.41181867  0.38489200  1
  H  459  1  0.78888600  0.44541300  0.34902900  1
  H  460  1  0.80146300  0.34049000  0.43425900  1
  H  461  1  0.20803200  0.34875100  0.44567700  1
  H  462  1  0.20635000  0.38462600  0.41210000  1
  H  475  1  0.19505300  0.34050967  0.16812833  1
  H  476  1  0.78994100  0.38460500  0.14628300  1
  H  477  1  0.78828900  0.34874367  0.14854867  1
  H  478  1  0.80098300  0.43396767  0.16824200  1
  H  479  1  0.20752500  0.44539367  0.14851433  1
  H  480  1  0.20582500  0.41181533  0.14621633  1
  H  493  1  0.19534300  0.16782200  0.43427867  1
  H  494  1  0.78986100  0.14601633  0.41211400  1
  H  495  1  0.78850900  0.14829033  0.44570500  1
  H  496  1  0.80059300  0.16795733  0.34079000  1
  H  497  1  0.20705600  0.14819300  0.34902700  1
  H  498  1  0.20556500  0.14589900  0.38490067  1
  H  511  1  0.19472700  0.52757767  0.62134567  1
  H  512  1  0.78956200  0.54978200  0.57728333  1
  H  513  1  0.78797900  0.51619400  0.61315100  1
  H  514  1  0.80054300  0.62111167  0.52791933  1
  H  515  1  0.20709700  0.61283600  0.51646633  1
  H  516  1  0.20542300  0.57695733  0.55004000  1
  H  529  1  0.19406200  0.62108967  0.79399933  1
  H  530  1  0.78901100  0.57699700  0.81591033  1
  H  531  1  0.78737800  0.61285833  0.81364200  1
  H  532  1  0.79996800  0.52763000  0.79394867  1
  H  533  1  0.20653500  0.51619367  0.81364033  1
  H  534  1  0.20484900  0.54977400  0.81593267  1
  H  547  1  0.19442200  0.79376267  0.52786400  1
  H  548  1  0.78899900  0.81559100  0.55005900  1
  H  549  1  0.78759900  0.81332267  0.51646500  1
  H  550  1  0.79972700  0.79364133  0.62138467  1
  H  551  1  0.20620400  0.81338267  0.61312533  1
  H  552  1  0.20470300  0.81568167  0.57724933  1
  H  565  1  0.19773500  0.72970967  0.28720900  1
  H  566  1  0.78868000  0.69625067  0.28051833  1
  H  567  1  0.78970500  0.71322000  0.30342933  1
  H  568  1  0.79843500  0.67466600  0.23216100  1
  H  569  1  0.20657600  0.65850400  0.24859300  1
  H  570  1  0.20755200  0.68139400  0.26558167  1
  H  583  1  0.19709400  0.28691500  0.92601900  1
  H  584  1  0.78811100  0.28023100  0.96621200  1
  H  585  1  0.78913100  0.30315500  0.92633667  1
  H  586  1  0.79786000  0.23183967  0.03614867  1
  H  587  1  0.20587500  0.24833900  0.03583867  1
  H  588  1  0.20685600  0.26531667  0.99596233  1
  H  601  1  0.19740700  0.92571033  0.73001567  1
  H  602  1  0.78860900  0.96596700  0.69654100  1
  H  603  1  0.78937900  0.92609500  0.71349500  1
  H  604  1  0.79881900  0.03590800  0.67498033  1
  H  605  1  0.20678400  0.03552500  0.65876900  1
  H  606  1  0.20754800  0.99565300  0.68167567  1
  H  619  1  0.19842800  0.23189300  0.67495900  1
  H  620  1  0.78915900  0.26533567  0.68164000  1
  H  621  1  0.79040100  0.24837000  0.65873500  1
  H  622  1  0.79852000  0.28689200  0.73002767  1
  H  623  1  0.20651100  0.30314100  0.71353400  1
  H  624  1  0.20774500  0.28024000  0.69655333  1
  H  637  1  0.19777700  0.67466400  0.03609200  1
  H  638  1  0.78850800  0.68137600  0.99598400  1
  H  639  1  0.78970000  0.65846400  0.03586400  1
  H  640  1  0.79792900  0.72974333  0.92604867  1
  H  641  1  0.20599400  0.71328200  0.92626100  1
  H  642  1  0.20720600  0.69629200  0.96614100  1
  H  655  1  0.19740600  0.03585367  0.23213400  1
  H  656  1  0.78844000  0.99567900  0.26564100  1
  H  657  1  0.78945200  0.03555300  0.24868600  1
  H  658  1  0.79818000  0.92574300  0.28718067  1
  H  659  1  0.20618500  0.92603400  0.30338800  1
  H  660  1  0.20717100  0.96590900  0.28048767  1
  N  4  1  0.99845400  0.52248333  0.21024400  1
  N  8  1  0.00024400  0.55820067  0.16063233  1
  N  14  1  0.99838600  0.59402967  0.17445033  1
  N  20  1  0.99667300  0.55822400  0.22410600  1
  N  78  1  0.99775900  0.20996500  0.21022733  1
  N  82  1  0.99948400  0.16035400  0.22412333  1
  N  88  1  0.99783900  0.17417100  0.17447633  1
  N  94  1  0.99605700  0.22382600  0.16062400  1
  N  152  1  0.99897100  0.20995000  0.52276600  1
  N  156  1  0.00084400  0.22384300  0.55848400  1
  N  162  1  0.99919300  0.17419500  0.59430933  1
  N  168  1  0.99728900  0.16034700  0.55850267  1
  N  226  1  0.99753500  0.43911400  0.75192033  1
  N  230  1  0.99916400  0.40339467  0.80153067  1
  N  236  1  0.99759500  0.36757000  0.78770867  1
  N  242  1  0.99593700  0.40337700  0.73805333  1
  N  300  1  0.99682300  0.75163800  0.75192567  1
  N  304  1  0.99873000  0.80125100  0.73802867  1
  N  310  1  0.99704400  0.78743500  0.78767400  1
  N  316  1  0.99525000  0.73777900  0.80152667  1
  N  374  1  0.99797600  0.75165167  0.43939333  1
  N  378  1  0.99986933  0.73775800  0.40367733  1
  N  384  1  0.99812400  0.78740700  0.36784733  1
  N  390  1  0.99622200  0.80125600  0.40365233  1
  N  449  1  0.89103500  0.37003467  0.41180433  1
  N  456  1  0.10593700  0.41154700  0.37031900  1
  N  467  1  0.89053500  0.41151500  0.16114200  1
  N  474  1  0.10539700  0.37003300  0.16108600  1
  N  485  1  0.89026400  0.16083900  0.37033000  1
  N  492  1  0.10544100  0.16078400  0.41181800  1
  N  503  1  0.89010000  0.59155800  0.55035033  1
  N  510  1  0.10502500  0.55004600  0.59182600  1
  N  521  1  0.88953800  0.55008233  0.80103733  1
  N  528  1  0.10442400  0.59156000  0.80106467  1
  N  539  1  0.88940900  0.80074500  0.59184033  1
  N  546  1  0.10455500  0.80080433  0.55033233  1
  N  557  1  0.89068800  0.68788900  0.24950500  1
  N  564  1  0.10547600  0.71236500  0.27398733  1
  N  575  1  0.89011400  0.24917967  0.00557533  1
  N  582  1  0.10485600  0.27367900  0.95659500  1
  N  593  1  0.89086000  0.00531733  0.68820867  1
  N  600  1  0.10532800  0.95630100  0.71268633  1
  N  611  1  0.89092900  0.27368333  0.71267567  1
  N  618  1  0.10598900  0.24922300  0.68818933  1
  N  629  1  0.89034700  0.71239167  0.95660267  1
  N  636  1  0.10537700  0.68789100  0.00553533  1
  N  647  1  0.89043300  0.95631200  0.27395100  1
  N  654  1  0.10517100  0.00528100  0.24947300  1
