# generated using pymatgen
data_V4H28C69O21F4
_symmetry_space_group_name_H-M   'P 1'
_cell_length_a   6.93710000
_cell_length_b   17.66598000
_cell_length_c   19.37843000
_cell_angle_alpha   71.44249000
_cell_angle_beta   89.73259000
_cell_angle_gamma   89.75505000
_symmetry_Int_Tables_number   1
_chemical_formula_structural   V4H28C69O21F4
_chemical_formula_sum   'V4 H28 C69 O21 F4'
_cell_volume   2251.32478006
_cell_formula_units_Z   1
loop_
 _symmetry_equiv_pos_site_id
 _symmetry_equiv_pos_as_xyz
  1  'x, y, z'
loop_
 _atom_site_type_symbol
 _atom_site_label
 _atom_site_symmetry_multiplicity
 _atom_site_fract_x
 _atom_site_fract_y
 _atom_site_fract_z
 _atom_site_occupancy
  V  V0  1  0.06463000  0.49062000  0.50155000  1
  V  V1  1  0.56406000  0.50938000  0.49845000  1
  V  V2  1  0.67029000  0.00937000  0.99845000  1
  V  V3  1  0.17084000  0.99045000  0.00169000  1
  H  H4  1  0.70777000  0.87462000  0.42981000  1
  H  H5  1  0.92869000  0.54171000  0.29748000  1
  H  H6  1  0.01048000  0.51869000  0.18393000  1
  H  H7  1  0.03249000  0.63112000  0.06926000  1
  H  H8  1  0.97237000  0.76726000  0.06766000  1
  H  H9  1  0.80425000  0.95980000  0.20155000  1
  H  H10  1  0.72477000  0.98498000  0.31410000  1
  H  H11  1  0.12823000  0.58636000  0.67662000  1
  H  H12  1  0.56941000  0.68632000  0.60339000  1
  H  H13  1  0.42339000  0.78305000  0.65461000  1
  H  H14  1  0.43448000  0.86040000  0.73905000  1
  H  H15  1  0.60102000  0.89750000  0.83445000  1
  H  H16  1  0.16394000  0.80382000  0.90598000  1
  H  H17  1  0.30707000  0.70264000  0.85776000  1
  H  H18  1  0.09963000  0.09333000  0.17491000  1
  H  H19  1  0.93710000  0.13301000  0.27062000  1
  H  H20  1  0.08020000  0.31025000  0.40359000  1
  H  H21  1  0.63610000  0.40839000  0.32411000  1
  H  H22  1  0.79757000  0.36935000  0.22775000  1
  H  H23  1  0.80484000  0.29141000  0.14392000  1
  H  H24  1  0.07841000  0.14784000  0.57328000  1
  H  H25  1  0.47485000  0.45545000  0.70092000  1
  H  H26  1  0.59368000  0.47404000  0.81176000  1
  H  H27  1  0.61106000  0.36069000  0.92577000  1
  H  H28  1  0.51278000  0.22834000  0.92915000  1
  H  H29  1  0.13816000  0.02975000  0.67713000  1
  H  H30  1  0.18937000  0.27671000  0.57189000  1
  H  H31  1  0.47660000  0.01720000  0.82321000  1
  C  C32  1  0.34956000  0.41459000  0.41850000  1
  C  C33  1  0.34466000  0.38395000  0.61525000  1
  C  C34  1  0.83967000  0.58379000  0.58287000  1
  C  C35  1  0.84488000  0.61722000  0.38550000  1
  C  C36  1  0.93830000  0.59321000  0.24901000  1
  C  C37  1  0.98472000  0.57912000  0.18412000  1
  C  C38  1  0.99708000  0.64239000  0.11959000  1
  C  C39  1  0.96287000  0.72021000  0.11943000  1
  C  C40  1  0.91636000  0.73647000  0.18454000  1
  C  C41  1  0.90404000  0.67172000  0.25079000  1
  C  C42  1  0.87922000  0.81552000  0.18408000  1
  C  C43  1  0.83066000  0.83005000  0.24994000  1
  C  C44  1  0.81963000  0.76554000  0.31677000  1
  C  C45  1  0.85563000  0.68595000  0.31694000  1
  C  C46  1  0.79588000  0.90889000  0.25056000  1
  C  C47  1  0.75086000  0.92426000  0.31480000  1
  C  C48  1  0.74117000  0.86200000  0.37992000  1
  C  C49  1  0.77573000  0.78359000  0.38169000  1
  C  C50  1  0.00978000  0.62562000  0.67914000  1
  C  C51  1  0.84843000  0.63126000  0.63375000  1
  C  C52  1  0.69418000  0.68146000  0.63805000  1
  C  C53  1  0.70094000  0.72640000  0.68604000  1
  C  C54  1  0.86263000  0.72024000  0.73158000  1
  C  C55  1  0.01734000  0.66921000  0.72857000  1
  C  C56  1  0.54838000  0.77753000  0.68923000  1
  C  C57  1  0.55463000  0.82164000  0.73757000  1
  C  C58  1  0.71418000  0.81589000  0.78323000  1
  C  C59  1  0.86937000  0.76536000  0.78013000  1
  C  C60  1  0.03095000  0.75997000  0.82547000  1
  C  C61  1  0.18243000  0.70795000  0.82301000  1
  C  C62  1  0.17591000  0.66280000  0.77522000  1
  C  C63  1  0.72178000  0.86056000  0.83130000  1
  C  C64  1  0.88529000  0.85907000  0.87421000  1
  C  C65  1  0.03854000  0.80717000  0.87194000  1
  C  C66  1  0.53219000  0.18860000  0.13033000  1
  C  C67  1  0.37779000  0.13709000  0.12899000  1
  C  C68  1  0.21845000  0.13290000  0.17527000  1
  C  C69  1  0.21375000  0.17778000  0.22347000  1
  C  C70  1  0.36900000  0.22868000  0.22486000  1
  C  C71  1  0.52822000  0.23445000  0.17785000  1
  C  C72  1  0.05705000  0.17203000  0.27089000  1
  C  C73  1  0.05291000  0.21660000  0.31906000  1
  C  C74  1  0.20590000  0.26814000  0.32045000  1
  C  C75  1  0.36515000  0.27386000  0.27342000  1
  C  C76  1  0.52070000  0.32470000  0.27488000  1
  C  C77  1  0.67721000  0.33054000  0.22744000  1
  C  C78  1  0.68104000  0.28590000  0.17944000  1
  C  C79  1  0.20281000  0.31414000  0.36777000  1
  C  C80  1  0.35762000  0.36479000  0.36967000  1
  C  C81  1  0.51684000  0.36914000  0.32342000  1
  C  C82  1  0.48420000  0.40329000  0.74878000  1
  C  C83  1  0.55115000  0.41498000  0.81222000  1
  C  C84  1  0.56092000  0.35122000  0.87634000  1
  C  C85  1  0.50489000  0.27525000  0.87734000  1
  C  C86  1  0.43948000  0.26095000  0.81334000  1
  C  C87  1  0.42789000  0.32656000  0.74786000  1
  C  C88  1  0.38348000  0.18323000  0.81432000  1
  C  C89  1  0.31548000  0.17105000  0.74873000  1
  C  C90  1  0.29112000  0.23877000  0.68491000  1
  C  C91  1  0.35416000  0.31541000  0.68378000  1
  C  C92  1  0.27078000  0.09387000  0.74321000  1
  C  C93  1  0.17663000  0.08752000  0.68133000  1
  C  C94  1  0.14462000  0.15415000  0.62164000  1
  C  C95  1  0.20777000  0.22819000  0.62202000  1
  C  C96  1  0.39039000  0.11673000  0.88479000  1
  C  C97  1  0.38541000  0.08615000  0.08094000  1
  C  C98  1  0.88982000  0.88322000  0.11483000  1
  C  C99  1  0.89486000  0.91233000  0.92036000  1
  C  C100  1  0.34292000  0.01834000  0.79459000  1
  O  O101  1  0.50567000  0.41572000  0.58628000  1
  O  O102  1  0.18067000  0.43007000  0.43979000  1
  O  O103  1  0.00568000  0.58428000  0.41372000  1
  O  O104  1  0.17627000  0.40630000  0.58733000  1
  O  O105  1  0.00124000  0.56034000  0.56231000  1
  O  O106  1  0.51011000  0.43966000  0.43769000  1
  O  O107  1  0.33766000  0.55056000  0.49162000  1
  O  O108  1  0.67125000  0.56993000  0.56021000  1
  O  O109  1  0.67566000  0.59370000  0.41267000  1
  O  O110  1  0.84090000  0.44944000  0.50838000  1
  O  O111  1  0.22480000  0.06047000  0.06220000  1
  O  O112  1  0.55889000  0.09372000  0.91265000  1
  O  O113  1  0.73367000  0.93963000  0.93772000  1
  O  O114  1  0.55425000  0.06995000  0.06018000  1
  O  O115  1  0.72900000  0.91570000  0.08630000  1
  O  O116  1  0.22947000  0.08440000  0.91362000  1
  O  O117  1  0.39717000  0.94951000  0.00832000  1
  O  O118  1  0.05901000  0.90617000  0.08743000  1
  O  O119  1  0.06365000  0.92994000  0.93990000  1
  O  O120  1  0.89409000  0.05048000  0.99168000  1
  O  O121  1  0.25842000  0.95571000  0.80276000  1
  F  F122  1  0.32548000  0.61326000  0.77435000  1
  F  F123  1  0.68541000  0.19513000  0.08478000  1
  F  F124  1  0.89893000  0.20928000  0.36423000  1
  F  F125  1  0.76835000  0.72675000  0.44783000  1
