# generated using pymatgen
data_H7C14(NO)4
_symmetry_space_group_name_H-M   'P 1'
_cell_length_a   10.05673333
_cell_length_b   32.06590000
_cell_length_c   32.06590000
_cell_angle_alpha   120.00000000
_cell_angle_beta   90.00000000
_cell_angle_gamma   90.00000000
_symmetry_Int_Tables_number   1
_chemical_formula_structural   H7C14(NO)4
_chemical_formula_sum   'H42 C84 N24 O24'
_cell_volume   8955.18235476
_cell_formula_units_Z   6
loop_
 _symmetry_equiv_pos_site_id
 _symmetry_equiv_pos_as_xyz
  1  'x, y, z'
loop_
 _atom_site_type_symbol
 _atom_site_label
 _atom_site_symmetry_multiplicity
 _atom_site_fract_x
 _atom_site_fract_y
 _atom_site_fract_z
 _atom_site_occupancy
  C  1  1  0.00333400  0.02993000  0.51430000  1
  C  2  1  0.97994700  0.05684400  0.56486500  1
  C  3  1  0.99428400  0.10716300  0.59110100  1
  C  4  1  0.00820800  0.13228200  0.56578800  1
  C  5  1  0.01946200  0.10732700  0.51527200  1
  C  6  1  0.02866200  0.05685500  0.49080000  1
  C  10  1  0.00327300  0.97852700  0.48851500  1
  C  11  1  0.02863200  0.95159800  0.51201100  1
  C  12  1  0.01939300  0.90113000  0.48754200  1
  C  13  1  0.00806400  0.87617700  0.43702900  1
  C  14  1  0.99411500  0.90130100  0.41172100  1
  C  15  1  0.97971600  0.95161700  0.43796000  1
  C  23  1  0.00309300  0.49143100  0.97571100  1
  C  24  1  0.97969600  0.51508000  0.94879800  1
  C  25  1  0.99407600  0.49100100  0.89848200  1
  C  26  1  0.00806800  0.44056900  0.87335800  1
  C  27  1  0.01929300  0.41500600  0.89831000  1
  C  28  1  0.02832400  0.44099800  0.94878200  1
  C  32  1  0.00308600  0.51704600  0.02711600  1
  C  33  1  0.02839300  0.56747500  0.05404500  1
  C  34  1  0.01940400  0.59346300  0.10452000  1
  C  35  1  0.00812600  0.56789800  0.12946700  1
  C  36  1  0.99404600  0.51746900  0.10433800  1
  C  37  1  0.97953700  0.49340500  0.05402700  1
  C  45  1  0.00311500  0.49132600  0.51422200  1
  C  46  1  0.97944900  0.44077800  0.49057900  1
  C  47  1  0.99399700  0.41452900  0.51463900  1
  C  48  1  0.00806400  0.43982500  0.56506900  1
  C  49  1  0.01935600  0.49033600  0.59063700  1
  C  50  1  0.02842100  0.51482100  0.56465000  1
  C  54  1  0.00319300  0.51711700  0.48860800  1
  C  55  1  0.02847200  0.49361100  0.43817700  1
  C  56  1  0.01944200  0.51809000  0.41218400  1
  C  57  1  0.00819700  0.56860400  0.43774700  1
  C  58  1  0.99417500  0.59391200  0.48817600  1
  C  59  1  0.97977800  0.56767800  0.51225500  1
  C  67  1  0.04700600  0.80692100  0.28639400  1
  C  68  1  0.14877100  0.77610600  0.25675600  1
  C  69  1  0.12035100  0.73376000  0.21279000  1
  C  70  1  0.98505900  0.71999200  0.20052300  1
  C  71  1  0.88216900  0.75246400  0.22866300  1
  C  73  1  0.91486400  0.79701300  0.26966500  1
  C  81  1  0.07500700  0.84123900  0.33447800  1
  C  83  1  0.95248200  0.67179400  0.16719400  1
  C  85  1  0.04691900  0.48653600  0.19871700  1
  C  86  1  0.14862300  0.48774700  0.22957600  1
  C  87  1  0.12017400  0.48614900  0.27193500  1
  C  88  1  0.98487900  0.48761000  0.28567600  1
  C  89  1  0.88199100  0.48326300  0.25320800  1
  C  91  1  0.91474400  0.47986700  0.20873900  1
  C  99  1  0.07499000  0.50024100  0.16436000  1
  C  101  1  0.95239300  0.50242400  0.33386800  1
  C  103  1  0.04703700  0.71920700  0.51903000  1
  C  104  1  0.14876000  0.74885400  0.51784200  1
  C  105  1  0.12027300  0.79281600  0.51946600  1
  C  106  1  0.98498600  0.80509900  0.51801900  1
  C  107  1  0.88206300  0.77696200  0.52233100  1
  C  109  1  0.91482600  0.73587100  0.52570100  1
  C  117  1  0.07508900  0.67115100  0.50537100  1
  C  119  1  0.95236300  0.83847800  0.50321600  1
  C  121  1  0.04719600  0.20156200  0.71641800  1
  C  122  1  0.14885900  0.23242600  0.74607200  1
  C  123  1  0.12038000  0.27473200  0.79006400  1
  C  124  1  0.98506600  0.28848200  0.80229800  1
  C  125  1  0.88223000  0.25599900  0.77412500  1
  C  127  1  0.91501500  0.21145800  0.73312400  1
  C  135  1  0.07517800  0.16723000  0.66833800  1
  C  137  1  0.95242200  0.33667100  0.83562900  1
  C  139  1  0.04703200  0.52195200  0.80411200  1
  C  140  1  0.14879100  0.52076200  0.77328700  1
  C  141  1  0.12036100  0.52237000  0.73093600  1
  C  142  1  0.98506600  0.52086300  0.71716900  1
  C  143  1  0.88218000  0.52520000  0.74964400  1
  C  145  1  0.91488500  0.52876300  0.79420000  1
  C  153  1  0.07504900  0.50820000  0.83843900  1
  C  155  1  0.95248000  0.50599100  0.66897200  1
  C  157  1  0.04682700  0.28922000  0.48370800  1
  C  158  1  0.14855700  0.25957800  0.48491400  1
  C  159  1  0.12010400  0.21562300  0.48332000  1
  C  160  1  0.98480800  0.20334400  0.48478300  1
  C  161  1  0.88191200  0.23145900  0.48043200  1
  C  163  1  0.91464700  0.27253200  0.47703200  1
  C  171  1  0.07494000  0.33727800  0.49740300  1
  C  173  1  0.95233200  0.16996700  0.49959900  1
  H  7  1  0.95928900  0.04010200  0.58408300  1
  H  8  1  0.04843900  0.04013800  0.45478100  1
  H  9  1  0.01070200  0.16913600  0.58436300  1
  H  16  1  0.04850000  0.96831500  0.54802600  1
  H  17  1  0.01056500  0.83932300  0.41845400  1
  H  18  1  0.95920500  0.96836100  0.41873700  1
  H  29  1  0.95907400  0.55104300  0.96555300  1
  H  30  1  0.04830600  0.42171500  0.96550500  1
  H  31  1  0.01062300  0.42229800  0.83650600  1
  H  38  1  0.04842900  0.58675900  0.03732600  1
  H  39  1  0.01070400  0.58616800  0.16631800  1
  H  40  1  0.95898600  0.45743700  0.03728100  1
  H  51  1  0.95902400  0.42155600  0.45460200  1
  H  52  1  0.04849800  0.55082100  0.58392900  1
  H  53  1  0.01064400  0.42124000  0.58333600  1
  H  60  1  0.04845900  0.45760500  0.41889800  1
  H  61  1  0.01073200  0.58718000  0.41947000  1
  H  62  1  0.95911300  0.58688600  0.54821500  1
  H  72  1  0.24553000  0.78313300  0.26825600  1
  H  74  1  0.83904600  0.81822500  0.29108600  1
  H  82  1  0.16192600  0.83772500  0.34922100  1
  H  84  1  0.86506700  0.65823400  0.17196000  1
  H  90  1  0.24540000  0.49218600  0.22253800  1
  H  92  1  0.83908500  0.47985800  0.18735800  1
  H  100  1  0.16196500  0.51846300  0.16785000  1
  H  102  1  0.86494900  0.52072600  0.34744200  1
  H  108  1  0.24555200  0.73740300  0.51347000  1
  H  110  1  0.83919300  0.71448900  0.52570200  1
  H  118  1  0.16207400  0.65641200  0.48716100  1
  H  120  1  0.86489800  0.83374900  0.48492600  1
  H  126  1  0.24565900  0.22536700  0.73462700  1
  H  128  1  0.83924200  0.19022900  0.71169700  1
  H  136  1  0.16206500  0.17076400  0.65358900  1
  H  138  1  0.86499700  0.35022200  0.83085400  1
  H  144  1  0.24555200  0.51629500  0.78031700  1
  H  146  1  0.83907600  0.52856400  0.81541900  1
  H  154  1  0.16194600  0.48992900  0.83491900  1
  H  156  1  0.86505600  0.48766800  0.65541600  1
  H  162  1  0.24533200  0.27105700  0.48935200  1
  H  164  1  0.83899600  0.29390700  0.47702500  1
  H  172  1  0.16191500  0.35200800  0.51562400  1
  H  174  1  0.86489700  0.17469400  0.51790600  1
  N  19  1  0.99341900  0.87818200  0.36302000  1
  N  20  1  0.02520200  0.87771500  0.51278100  1
  N  21  1  0.02521200  0.13073700  0.49002900  1
  N  22  1  0.99360700  0.13028200  0.63980200  1
  N  41  1  0.99332000  0.49188500  0.12745100  1
  N  42  1  0.02525000  0.64211800  0.12793600  1
  N  43  1  0.02514100  0.36635400  0.87489800  1
  N  44  1  0.99342900  0.51659000  0.87537200  1
  N  63  1  0.99342900  0.64261200  0.51375000  1
  N  64  1  0.02526000  0.49285100  0.36353200  1
  N  65  1  0.02523200  0.51557300  0.63929300  1
  N  66  1  0.99327000  0.36583200  0.48905100  1
  N  75  1  0.22577200  0.70239500  0.18582500  1
  N  76  1  0.74687900  0.74015400  0.21567600  1
  N  93  1  0.22567400  0.49058400  0.30329200  1
  N  94  1  0.74671800  0.48250100  0.26547500  1
  N  111  1  0.22568500  0.81982700  0.51513400  1
  N  112  1  0.74677800  0.78999100  0.52311600  1
  N  129  1  0.22575300  0.30609100  0.81707300  1
  N  130  1  0.74691800  0.26828000  0.78708700  1
  N  147  1  0.22577100  0.51795600  0.69956200  1
  N  148  1  0.74688800  0.52587400  0.73733800  1
  N  165  1  0.22560600  0.18870600  0.48775800  1
  N  166  1  0.74663900  0.21843100  0.47967500  1
  O  77  1  0.30578800  0.72233700  0.17114700  1
  O  78  1  0.69053700  0.76957000  0.20639900  1
  O  79  1  0.28888400  0.68713900  0.20937400  1
  O  80  1  0.68255400  0.73807700  0.24820900  1
  O  95  1  0.30572900  0.45597400  0.28336300  1
  O  96  1  0.69052700  0.44379800  0.23599400  1
  O  97  1  0.28872600  0.52939600  0.31853100  1
  O  98  1  0.68227300  0.51710100  0.26759000  1
  O  113  1  0.30561600  0.83450200  0.54978000  1
  O  114  1  0.69061800  0.79918600  0.56181400  1
  O  115  1  0.28890500  0.79632000  0.47635200  1
  O  116  1  0.68232400  0.75751500  0.48850800  1
  O  131  1  0.30572900  0.28612500  0.83173800  1
  O  132  1  0.69059700  0.23884800  0.79634800  1
  O  133  1  0.28892400  0.32138900  0.79357300  1
  O  134  1  0.68262300  0.27035000  0.75454700  1
  O  149  1  0.30578800  0.55257600  0.71949200  1
  O  150  1  0.69054700  0.56457300  0.76674900  1
  O  151  1  0.28888400  0.47915600  0.68431700  1
  O  152  1  0.68257200  0.49127000  0.73527400  1
  O  167  1  0.30566100  0.17402300  0.45314900  1
  O  168  1  0.69043800  0.20920800  0.44097300  1
  O  169  1  0.28865600  0.21227900  0.52657000  1
  O  170  1  0.68219600  0.25091900  0.51427500  1
