# generated using pymatgen
data_CoMo6H20C24(N4O3)3
_symmetry_space_group_name_H-M   'P 1'
_cell_length_a   9.33076000
_cell_length_b   11.19961000
_cell_length_c   11.69033981
_cell_angle_alpha   75.12664510
_cell_angle_beta   66.63475963
_cell_angle_gamma   74.27138000
_symmetry_Int_Tables_number   1
_chemical_formula_structural   CoMo6H20C24(N4O3)3
_chemical_formula_sum   'Co1 Mo6 H20 C24 N12 O9'
_cell_volume   1063.98369576
_cell_formula_units_Z   1
loop_
 _symmetry_equiv_pos_site_id
 _symmetry_equiv_pos_as_xyz
  1  'x, y, z'
loop_
 _atom_site_type_symbol
 _atom_site_label
 _atom_site_symmetry_multiplicity
 _atom_site_fract_x
 _atom_site_fract_y
 _atom_site_fract_z
 _atom_site_occupancy
  Co  Co0  1  0.49960000  0.49993000  0.50340000  1
  Mo  Mo1  1  0.35250000  0.66629000  0.24670000  1
  Mo  Mo2  1  0.49544000  0.61540000  0.95714000  1
  Mo  Mo3  1  0.38109000  0.89930000  0.12480000  1
  Mo  Mo4  1  0.65504000  0.33506000  0.77354000  1
  Mo  Mo5  1  0.51897000  0.37864000  0.03471000  1
  Mo  Mo6  1  0.62116000  0.12061000  0.85558000  1
  H  H7  1  0.34429000  0.55637000  0.78495000  1
  H  H8  1  0.29075000  0.76075000  0.45347000  1
  H  H9  1  0.09465000  0.92922000  0.56120000  1
  H  H10  1  0.01633000  0.91225000  0.79625000  1
  H  H11  1  0.78035000  0.57427000  0.25846000  1
  H  H12  1  0.58806000  0.67371000  0.61304000  1
  H  H13  1  0.77987000  0.81114000  0.55719000  1
  H  H14  1  0.99347000  0.82296000  0.33841000  1
  H  H15  1  0.76749000  0.77815000  0.10248000  1
  H  H16  1  0.84700000  0.79372000  0.95237000  1
  H  H17  1  0.65435000  0.44318000  0.21764000  1
  H  H18  1  0.70913000  0.23929000  0.54724000  1
  H  H19  1  0.90756000  0.07144000  0.43747000  1
  H  H20  1  0.98404000  0.08811000  0.20371000  1
  H  H21  1  0.22035000  0.42399000  0.74199000  1
  H  H22  1  0.41361000  0.32835000  0.38721000  1
  H  H23  1  0.22113000  0.18979000  0.44126000  1
  H  H24  1  0.01130000  0.17645000  0.65932000  1
  H  H25  1  0.23265000  0.22081000  0.89948000  1
  H  H26  1  0.14899000  0.21048000  0.04684000  1
  C  C27  1  0.13703000  0.71660000  0.94372000  1
  C  C28  1  0.17162000  0.73006000  0.80888000  1
  C  C29  1  0.28704000  0.64006000  0.73752000  1
  C  C30  1  0.25676000  0.75165000  0.55357000  1
  C  C31  1  0.14355000  0.84705000  0.61566000  1
  C  C32  1  0.09745000  0.83775000  0.74582000  1
  C  C33  1  0.01779000  0.70199000  0.15423000  1
  C  C34  1  0.89674000  0.70318000  0.28172000  1
  C  C35  1  0.78167000  0.62813000  0.32204000  1
  C  C36  1  0.67505000  0.68357000  0.51920000  1
  C  C37  1  0.78604000  0.76012000  0.48781000  1
  C  C38  1  0.89965000  0.77016000  0.36636000  1
  C  C39  1  0.85839000  0.28477000  0.05530000  1
  C  C40  1  0.82853000  0.27004000  0.18840000  1
  C  C41  1  0.71440000  0.35892000  0.26143000  1
  C  C42  1  0.74450000  0.24704000  0.44693000  1
  C  C43  1  0.85806000  0.15311000  0.38255000  1
  C  C44  1  0.90158000  0.16350000  0.25239000  1
  C  C45  1  0.98034000  0.29375000  0.84539000  1
  C  C46  1  0.10386000  0.29454000  0.71978000  1
  C  C47  1  0.21949000  0.36941000  0.67888000  1
  C  C48  1  0.32653000  0.31678000  0.48047000  1
  C  C49  1  0.21581000  0.24063000  0.51062000  1
  C  C50  1  0.10307000  0.22989000  0.63240000  1
  N  N51  1  0.24968000  0.68960000  0.99811000  1
  N  N52  1  0.17303000  0.68483000  0.12788000  1
  N  N53  1  0.99530000  0.72378000  0.04212000  1
  N  N54  1  0.85058000  0.72765000  0.03235000  1
  N  N55  1  0.32914000  0.64613000  0.61202000  1
  N  N56  1  0.67146000  0.61745000  0.43915000  1
  N  N57  1  0.74509000  0.31952000  0.00138000  1
  N  N58  1  0.82274000  0.31163000  0.86960000  1
  N  N59  1  0.00091000  0.27577000  0.95741000  1
  N  N60  1  0.14678000  0.27704000  0.96534000  1
  N  N61  1  0.67312000  0.35078000  0.38655000  1
  N  N62  1  0.33020000  0.38043000  0.56255000  1
  O  O63  1  0.45910000  0.51268000  0.13867000  1
  O  O64  1  0.21341000  0.82491000  0.28871000  1
  O  O65  1  0.42050000  0.57491000  0.36778000  1
  O  O66  1  0.48237000  0.73921000  0.06375000  1
  O  O67  1  0.53457000  0.48919000  0.86176000  1
  O  O68  1  0.78506000  0.17705000  0.70292000  1
  O  O69  1  0.57470000  0.41096000  0.65040000  1
  O  O70  1  0.50276000  0.25271000  0.95558000  1
  O  O71  1  0.50478000  0.00288000  0.99001000  1
