# generated using pymatgen
data_H13(C9N)2
_symmetry_space_group_name_H-M   'P 1'
_cell_length_a   33.83050000
_cell_length_b   33.83050000
_cell_length_c   34.91860000
_cell_angle_alpha   90.00000000
_cell_angle_beta   90.00000000
_cell_angle_gamma   90.00000000
_symmetry_Int_Tables_number   1
_chemical_formula_structural   H13(C9N)2
_chemical_formula_sum   'H208 C288 N32'
_cell_volume   39964.43303651
_cell_formula_units_Z   16
loop_
 _symmetry_equiv_pos_site_id
 _symmetry_equiv_pos_as_xyz
  1  'x, y, z'
loop_
 _atom_site_type_symbol
 _atom_site_label
 _atom_site_symmetry_multiplicity
 _atom_site_fract_x
 _atom_site_fract_y
 _atom_site_fract_z
 _atom_site_occupancy
  H  7  1  0.02911900  0.12610100  0.08067400  1
  H  8  1  0.12306400  0.14219800  0.15734300  1
  H  9  1  0.08304200  0.02761400  0.13213000  1
  H  16  1  0.11693300  0.18835400  0.07317600  1
  H  17  1  0.06565700  0.29401800  0.11348300  1
  H  18  1  0.02792500  0.18435700  0.15688600  1
  H  25  1  0.61507000  0.22651600  0.56690500  1
  H  26  1  0.55645400  0.19979800  0.66971000  1
  H  27  1  0.53530500  0.30838800  0.61499700  1
  H  34  1  0.57157700  0.15355200  0.56761800  1
  H  35  1  0.62883000  0.05829500  0.62121400  1
  H  36  1  0.63519400  0.17222000  0.66940300  1
  H  43  1  0.11273500  0.63219100  0.65244700  1
  H  44  1  0.02500300  0.61286200  0.57016400  1
  H  45  1  0.07263000  0.51683000  0.63102000  1
  H  52  1  0.03416800  0.67924600  0.65554800  1
  H  53  1  0.07417500  0.78212100  0.60022000  1
  H  54  1  0.10162100  0.66993200  0.55501700  1
  H  61  1  0.51136500  0.70587600  0.15475200  1
  H  62  1  0.59241300  0.70747800  0.06430100  1
  H  63  1  0.53406600  0.81176500  0.09545400  1
  H  70  1  0.59647700  0.67731000  0.16728000  1
  H  71  1  0.60478900  0.55790500  0.13530700  1
  H  72  1  0.53469600  0.63650000  0.07068800  1
  H  79  1  0.77213300  0.38447300  0.41373100  1
  H  80  1  0.80551700  0.46540300  0.32841300  1
  H  81  1  0.69056400  0.46915400  0.37457700  1
  H  88  1  0.84536500  0.43475900  0.42490000  1
  H  89  1  0.93759300  0.36502000  0.38042500  1
  H  90  1  0.83155500  0.37849000  0.31897900  1
  H  97  1  0.86109100  0.92641400  0.92551100  1
  H  98  1  0.86211700  0.86781900  0.82004500  1
  H  99  1  0.96558500  0.87197200  0.88648600  1
  H  106  1  0.79583300  0.86256000  0.90834800  1
  H  107  1  0.70716400  0.93881400  0.86718900  1
  H  108  1  0.82459100  0.95203000  0.82990300  1
  H  115  1  0.31397700  0.47884700  0.84671900  1
  H  116  1  0.31225400  0.39869400  0.93837800  1
  H  117  1  0.20569900  0.43579400  0.88945500  1
  H  124  1  0.35102400  0.39835700  0.83808700  1
  H  125  1  0.46493900  0.39023400  0.88497900  1
  H  126  1  0.37810600  0.46070300  0.93859800  1
  H  133  1  0.35483700  0.90179100  0.34304400  1
  H  134  1  0.37342700  0.96972400  0.44155000  1
  H  135  1  0.46838000  0.94567100  0.36769300  1
  H  142  1  0.31056300  0.98319400  0.35651500  1
  H  143  1  0.20647100  0.92025600  0.38143600  1
  H  144  1  0.31344500  0.88847400  0.43398400  1
  H  151  1  0.99705100  0.03500800  0.98911000  1
  H  152  1  0.02980500  0.08088500  0.02884600  1
  H  159  1  0.92177000  0.95543500  0.03200800  1
  H  160  1  0.89064100  0.91676000  0.98422200  1
  H  161  1  0.99193200  0.92696600  0.91456200  1
  H  162  1  0.02078300  0.00206100  0.12189400  1
  H  164  1  0.99654900  0.93764900  0.11174500  1
  H  165  1  0.98133500  0.92181700  0.06944800  1
  H  167  1  0.05235700  0.97305800  0.98366300  1
  H  168  1  0.05027400  0.95353400  0.94030800  1
  H  175  1  0.61628200  0.30264100  0.46499600  1
  H  176  1  0.58846700  0.25874400  0.51060800  1
  H  183  1  0.69058800  0.37499300  0.51399900  1
  H  184  1  0.73655200  0.40509100  0.47193800  1
  H  185  1  0.65044600  0.40822400  0.38481300  1
  H  186  1  0.58957800  0.34932100  0.59344700  1
  H  188  1  0.60830400  0.41412400  0.57541900  1
  H  189  1  0.62366600  0.42516400  0.53168600  1
  H  191  1  0.57185700  0.36929400  0.44086000  1
  H  192  1  0.58505300  0.38685000  0.39847300  1
  H  199  1  0.15571600  0.58377900  0.76441000  1
  H  200  1  0.11587500  0.60778700  0.71404200  1
  H  207  1  0.24034600  0.50399000  0.74060300  1
  H  208  1  0.27778500  0.47589400  0.79075200  1
  H  209  1  0.18401600  0.49637200  0.86769300  1
  H  210  1  0.13432700  0.50214800  0.65257000  1
  H  212  1  0.16506100  0.44844500  0.68277200  1
  H  213  1  0.18292700  0.45073600  0.72672800  1
  H  215  1  0.11432700  0.52660800  0.79857300  1
  H  216  1  0.12252200  0.51715500  0.84428200  1
  H  223  1  0.48429100  0.78905800  0.25305100  1
  H  224  1  0.51111900  0.74839900  0.20525700  1
  H  231  1  0.39771300  0.86813500  0.22920300  1
  H  232  1  0.37573500  0.90516700  0.28221800  1
  H  233  1  0.48745100  0.89221700  0.33435800  1
  H  234  1  0.47531100  0.82982300  0.12070200  1
  H  236  1  0.45153700  0.89208400  0.13920500  1
  H  237  1  0.44613000  0.90523700  0.18445600  1
  H  239  1  0.53534600  0.85149900  0.25397200  1
  H  240  1  0.54060200  0.86841000  0.29807100  1
  H  247  1  0.21639800  0.84032800  0.52164500  1
  H  248  1  0.25439100  0.88848900  0.48799300  1
  H  255  1  0.11572800  0.82411500  0.48352200  1
  H  256  1  0.07218800  0.78920900  0.52526800  1
  H  257  1  0.16481500  0.71236400  0.55622000  1
  H  258  1  0.21181600  0.84451100  0.38294500  1
  H  260  1  0.16776200  0.78968500  0.38266800  1
  H  261  1  0.15275300  0.76764500  0.42245700  1
  H  263  1  0.23777500  0.75511200  0.49580800  1
  H  264  1  0.22798500  0.71993400  0.52740700  1
  H  271  1  0.72432400  0.52118100  0.22923900  1
  H  272  1  0.75203200  0.47375400  0.27167400  1
  H  279  1  0.62730200  0.55431100  0.26808100  1
  H  280  1  0.58404500  0.57696500  0.21894700  1
  H  281  1  0.67902400  0.63430700  0.16426000  1
  H  282  1  0.71546800  0.54177200  0.36629500  1
  H  284  1  0.68234700  0.60298000  0.35569600  1
  H  285  1  0.67271300  0.62005400  0.31219800  1
  H  287  1  0.75252300  0.60696500  0.23261100  1
  H  288  1  0.74346000  0.63111200  0.19225300  1
  H  295  1  0.44346700  0.36954600  0.73334600  1
  H  296  1  0.41871700  0.41043200  0.78351200  1
  H  303  1  0.52345700  0.29563900  0.76862000  1
  H  304  1  0.56334100  0.26985800  0.71830300  1
  H  305  1  0.46502500  0.26959000  0.64433400  1
  H  306  1  0.42805200  0.31567700  0.86119000  1
  H  308  1  0.44879400  0.25253600  0.83865400  1
  H  309  1  0.46038700  0.24408700  0.79330600  1
  H  311  1  0.39485100  0.30273300  0.71330600  1
  H  312  1  0.40187500  0.28860100  0.66840400  1
  H  319  1  0.99564400  0.51964100  0.48173800  1
  H  320  1  0.02930900  0.56514700  0.52107300  1
  H  327  1  0.91263000  0.45016200  0.52907400  1
  H  328  1  0.87478000  0.41688800  0.48217100  1
  H  329  1  0.97350700  0.41497800  0.40853100  1
  H  330  1  0.01118500  0.49120800  0.61659800  1
  H  332  1  0.98388300  0.42774500  0.60770600  1
  H  333  1  0.96968800  0.41109400  0.56535300  1
  H  335  1  0.04222300  0.45182900  0.47579600  1
  H  336  1  0.03597300  0.43342000  0.43232600  1
  H  343  1  0.62637900  0.77382900  0.95805500  1
  H  344  1  0.58537800  0.73998400  0.00254600  1
  H  351  1  0.70888200  0.84093100  0.00413800  1
  H  352  1  0.75583700  0.87182100  0.96380300  1
  H  353  1  0.67126200  0.87863400  0.87543700  1
  H  354  1  0.59693200  0.83460600  0.08024800  1
  H  356  1  0.62907800  0.89301200  0.06104500  1
  H  357  1  0.65009200  0.89809000  0.01857500  1
  H  359  1  0.59077200  0.84145200  0.92947400  1
  H  360  1  0.60533300  0.85935000  0.88770600  1
  H  367  1  0.16049700  0.08257600  0.26932400  1
  H  368  1  0.12395100  0.11199100  0.21904200  1
  H  375  1  0.24885800  0.00969500  0.24509900  1
  H  376  1  0.28266500  0.97814500  0.29580500  1
  H  377  1  0.17938900  0.98143200  0.36324000  1
  H  378  1  0.14836400  0.01423900  0.14807900  1
  H  380  1  0.18013100  0.95842300  0.17380400  1
  H  381  1  0.19516400  0.95597600  0.21876600  1
  H  383  1  0.11610300  0.01790800  0.29079400  1
  H  384  1  0.11946200  0.00220700  0.33549500  1
  H  391  1  0.21824100  0.36850500  0.03554300  1
  H  392  1  0.25456800  0.41321600  0.99583200  1
  H  399  1  0.11629100  0.34173900  0.00108700  1
  H  400  1  0.07461500  0.30384500  0.04192800  1
  H  401  1  0.17279300  0.23749500  0.07903400  1
  H  402  1  0.20971600  0.35711900  0.89732200  1
  H  404  1  0.16748500  0.30150900  0.90388000  1
  H  405  1  0.15440100  0.28331800  0.94603000  1
  H  407  1  0.24373400  0.28492800  0.01965200  1
  H  408  1  0.23603700  0.25015500  0.05218000  1
  H  415  1  0.75225700  0.00724500  0.72744400  1
  H  416  1  0.77872100  0.95890200  0.76977400  1
  H  423  1  0.64827100  0.02623200  0.74714400  1
  H  424  1  0.61257800  0.05645800  0.69620900  1
  H  425  1  0.70825500  0.13307600  0.67494800  1
  H  426  1  0.71996700  0.01253300  0.86259300  1
  H  428  1  0.68073600  0.06985200  0.85173600  1
  H  429  1  0.67577000  0.09016900  0.80882500  1
  H  431  1  0.77029100  0.09611200  0.74939000  1
  H  432  1  0.76606100  0.12852300  0.71403300  1
  H  439  1  0.55820100  0.06799400  0.46982500  1
  H  440  1  0.59810300  0.10609500  0.51250700  1
  H  447  1  0.46593500  0.05966500  0.48628900  1
  H  448  1  0.42023100  0.02999100  0.44286200  1
  H  449  1  0.49283100  0.92907100  0.43550500  1
  H  450  1  0.55452700  0.04077600  0.60613600  1
  H  452  1  0.50787100  0.98960200  0.59559200  1
  H  453  1  0.49045100  0.97869200  0.55256600  1
  H  455  1  0.56837200  0.96374100  0.49771800  1
  H  456  1  0.55327700  0.92698100  0.47001700  1
  H  463  1  0.03265500  0.76125500  0.75795200  1
  H  464  1  0.06277400  0.72587200  0.70667600  1
  H  471  1  0.93433500  0.77450000  0.75564100  1
  H  472  1  0.89968000  0.80144600  0.80916000  1
  H  473  1  0.98371400  0.89298200  0.81740800  1
  H  474  1  0.00126800  0.79575600  0.62651200  1
  H  476  1  0.95857700  0.84685200  0.64877800  1
  H  477  1  0.95114000  0.85568200  0.69488300  1
  H  479  1  0.04337700  0.86186800  0.73917100  1
  H  480  1  0.03764800  0.89486800  0.77378600  1
  H  487  1  0.92438300  0.35962600  0.22040100  1
  H  488  1  0.89065900  0.39103800  0.27206100  1
  H  495  1  0.01831100  0.32751000  0.23600000  1
  H  496  1  0.05981200  0.29932800  0.18803900  1
  H  497  1  0.96532500  0.22855400  0.14962200  1
  H  498  1  0.92476700  0.29901200  0.34631700  1
  H  500  1  0.96397100  0.24618300  0.32237900  1
  H  501  1  0.97860600  0.24363600  0.27719200  1
  H  503  1  0.89464900  0.26317300  0.21726200  1
  H  504  1  0.90285200  0.23307100  0.18069300  1
  H  511  1  0.53379400  0.54480800  0.98138400  1
  H  512  1  0.55904600  0.59427500  0.02222400  1
  H  519  1  0.45915400  0.47144500  0.03543200  1
  H  520  1  0.41547200  0.44088100  0.99182200  1
  H  521  1  0.50365600  0.44388400  0.90658100  1
  H  522  1  0.55238400  0.51585500  0.11581100  1
  H  524  1  0.53625300  0.44870800  0.10485000  1
  H  525  1  0.52441200  0.43156400  0.06194400  1
  H  527  1  0.58037600  0.47915400  0.96655500  1
  H  528  1  0.56866500  0.46308600  0.92322300  1
  C  1  1  0.07636300  0.13940600  0.11762200  1
  C  2  1  0.05025100  0.11397900  0.09807900  1
  C  3  1  0.05270700  0.07241800  0.10225500  1
  C  4  1  0.08123600  0.05746400  0.12821300  1
  C  5  1  0.10709400  0.08218800  0.14931900  1
  C  6  1  0.10461800  0.12338500  0.14288600  1
  C  10  1  0.07227200  0.18078400  0.11461300  1
  C  11  1  0.09717100  0.20292000  0.09036100  1
  C  12  1  0.09477800  0.24466400  0.08913900  1
  C  13  1  0.06715700  0.26377600  0.11335900  1
  C  14  1  0.04200200  0.24215100  0.13800700  1
  C  15  1  0.04484600  0.20050100  0.13820300  1
  C  19  1  0.58832500  0.20792900  0.61817300  1
  C  20  1  0.59514700  0.23440100  0.58762500  1
  C  21  1  0.57640700  0.27182800  0.58599200  1
  C  22  1  0.54944300  0.28161500  0.61551200  1
  C  23  1  0.54237200  0.25568100  0.64644400  1
  C  24  1  0.56226000  0.21909400  0.64777600  1
  C  28  1  0.60378100  0.16904300  0.61715600  1
  C  29  1  0.59067200  0.14317100  0.58810000  1
  C  30  1  0.59956300  0.10240900  0.58924300  1
  C  31  1  0.62273500  0.08793600  0.61981900  1
  C  32  1  0.63681100  0.11334000  0.64895900  1
  C  33  1  0.62695000  0.15389400  0.64744400  1
  C  37  1  0.06861100  0.62773000  0.61045200  1
  C  38  1  0.09461100  0.61275300  0.63841700  1
  C  39  1  0.09623600  0.57197900  0.64721800  1
  C  40  1  0.07164300  0.54643100  0.62553300  1
  C  41  1  0.04586000  0.56016700  0.59638800  1
  C  42  1  0.04433400  0.60147300  0.58984100  1
  C  46  1  0.06630600  0.66898000  0.60479000  1
  C  47  1  0.04832200  0.69265100  0.63305600  1
  C  48  1  0.05039600  0.73431500  0.63142900  1
  C  49  1  0.07079100  0.75202300  0.60054300  1
  C  50  1  0.08973500  0.72886400  0.57216300  1
  C  51  1  0.08710300  0.68720900  0.57459700  1
  C  55  1  0.55170700  0.70112800  0.10942900  1
  C  56  1  0.52491700  0.72139400  0.13330700  1
  C  57  1  0.51780600  0.76247300  0.12912400  1
  C  58  1  0.53769300  0.78201700  0.09874700  1
  C  59  1  0.56451500  0.76259700  0.07394400  1
  C  60  1  0.57121900  0.72184900  0.07997500  1
  C  64  1  0.56345700  0.66201300  0.11790300  1
  C  65  1  0.58851400  0.65463500  0.14939400  1
  C  66  1  0.60314000  0.61628200  0.15609300  1
  C  67  1  0.59292700  0.58537200  0.13079300  1
  C  68  1  0.56793500  0.59187500  0.09889900  1
  C  69  1  0.55338300  0.63072200  0.09306500  1
  C  73  1  0.79389100  0.42240600  0.37081400  1
  C  74  1  0.76508000  0.40788100  0.39639100  1
  C  75  1  0.72675600  0.42448100  0.39808100  1
  C  76  1  0.71810400  0.45660600  0.37358900  1
  C  77  1  0.74656100  0.47191800  0.34783500  1
  C  78  1  0.78433200  0.45414700  0.34633700  1
  C  82  1  0.83278800  0.40729300  0.37253500  1
  C  83  1  0.85641200  0.41573500  0.40477000  1
  C  84  1  0.89529400  0.40071000  0.40861100  1
  C  85  1  0.90956800  0.37622300  0.37869000  1
  C  86  1  0.88706700  0.36834000  0.34534900  1
  C  87  1  0.84852800  0.38421000  0.34264600  1
  C  91  1  0.85579100  0.89603600  0.87349000  1
  C  92  1  0.87611900  0.90909800  0.90638300  1
  C  93  1  0.91683400  0.90116100  0.91201900  1
  C  94  1  0.93640800  0.87910700  0.88312400  1
  C  95  1  0.91715900  0.86703200  0.84909900  1
  C  96  1  0.87653800  0.87556300  0.84474000  1
  C  100  1  0.81540100  0.90542400  0.86907700  1
  C  101  1  0.78693000  0.88573400  0.89154900  1
  C  102  1  0.74672100  0.89727100  0.89121100  1
  C  103  1  0.73594600  0.92950000  0.86750700  1
  C  104  1  0.76386200  0.94960900  0.84443600  1
  C  105  1  0.80367200  0.93705500  0.84540700  1
  C  109  1  0.31871000  0.43995900  0.89334500  1
  C  110  1  0.29796500  0.46296700  0.86624100  1
  C  111  1  0.25606500  0.46303500  0.86461500  1
  C  112  1  0.23574700  0.43872600  0.89124500  1
  C  113  1  0.25577300  0.41625200  0.91923900  1
  C  114  1  0.29737400  0.41734300  0.92023900  1
  C  118  1  0.35941900  0.43191800  0.88859600  1
  C  119  1  0.37127800  0.40713600  0.85822600  1
  C  120  1  0.40994700  0.39181800  0.85690300  1
  C  121  1  0.43706800  0.40199600  0.88599000  1
  C  122  1  0.42652100  0.42790700  0.91618600  1
  C  123  1  0.38708300  0.44217300  0.91712600  1
  C  127  1  0.35869400  0.93642800  0.39257100  1
  C  128  1  0.37402700  0.91758400  0.35973100  1
  C  129  1  0.41436600  0.92036000  0.34929600  1
  C  130  1  0.43931400  0.94159800  0.37464300  1
  C  131  1  0.42538600  0.95858000  0.40916100  1
  C  132  1  0.38450000  0.95667600  0.41735400  1
  C  136  1  0.31721400  0.93775500  0.39705500  1
  C  137  1  0.29557900  0.96221900  0.37191100  1
  C  138  1  0.25476100  0.95631600  0.36522100  1
  C  139  1  0.23573900  0.92601200  0.38630200  1
  C  140  1  0.25639900  0.90188200  0.41266600  1
  C  141  1  0.29744800  0.90776800  0.41749200  1
  C  145  1  0.02891100  0.04609500  0.07966500  1
  C  146  1  0.01611400  0.00889200  0.09371300  1
  C  147  1  0.99884300  0.97977400  0.06979400  1
  C  148  1  0.99225100  0.98912600  0.03054100  1
  C  149  1  0.00173100  0.02743400  0.01716200  1
  C  150  1  0.02050300  0.05498100  0.04096300  1
  C  153  1  0.97677100  0.96182000  0.00329000  1
  C  154  1  0.93760500  0.94822500  0.00800000  1
  C  155  1  0.91899400  0.92589600  0.97931600  1
  C  156  1  0.93782100  0.91823800  0.94384800  1
  C  157  1  0.97750100  0.93111100  0.93996700  1
  C  158  1  0.99772800  0.95174600  0.96925800  1
  C  169  1  0.58651900  0.29968800  0.55676400  1
  C  170  1  0.59350700  0.33988600  0.56585400  1
  C  171  1  0.60875300  0.36700400  0.53874200  1
  C  172  1  0.61771800  0.35319400  0.50119500  1
  C  173  1  0.60906400  0.31356900  0.49145200  1
  C  174  1  0.59319600  0.28745500  0.51860700  1
  C  177  1  0.64190100  0.37502300  0.47535200  1
  C  178  1  0.68113200  0.38276700  0.48715600  1
  C  179  1  0.70849800  0.40000900  0.46212700  1
  C  180  1  0.69792700  0.40931800  0.42407000  1
  C  181  1  0.65847500  0.40212000  0.41246300  1
  C  182  1  0.63011900  0.38513800  0.43742600  1
  C  193  1  0.12099000  0.55745600  0.67763700  1
  C  194  1  0.13797600  0.51917400  0.67650300  1
  C  195  1  0.15920600  0.50286900  0.70769300  1
  C  196  1  0.16604900  0.52689200  0.74058300  1
  C  197  1  0.15116200  0.56589500  0.74114500  1
  C  198  1  0.12812900  0.58036500  0.71086000  1
  C  201  1  0.18800100  0.51357900  0.77297000  1
  C  202  1  0.22784700  0.50248200  0.76729100  1
  C  203  1  0.25033400  0.48654100  0.79729200  1
  C  204  1  0.23471800  0.48307600  0.83473400  1
  C  205  1  0.19583100  0.49743900  0.84073900  1
  C  206  1  0.17159600  0.51126400  0.81050300  1
  C  217  1  0.49633400  0.78482200  0.15747400  1
  C  218  1  0.47774400  0.82133100  0.14870800  1
  C  219  1  0.46491200  0.84815000  0.17732200  1
  C  220  1  0.46791000  0.83658600  0.21645900  1
  C  221  1  0.48216300  0.79836000  0.22519700  1
  C  222  1  0.49725000  0.77366400  0.19652800  1
  C  225  1  0.45709400  0.86129500  0.24789500  1
  C  226  1  0.41752000  0.87421500  0.25059700  1
  C  227  1  0.40429200  0.89538200  0.28265600  1
  C  228  1  0.42901300  0.90197700  0.31481300  1
  C  229  1  0.46867200  0.88880300  0.31168200  1
  C  230  1  0.48362000  0.87000000  0.27849100  1
  C  241  1  0.23648700  0.87088100  0.43226300  1
  C  242  1  0.21281900  0.84328100  0.41224200  1
  C  243  1  0.19015700  0.81427500  0.43153800  1
  C  244  1  0.19143400  0.81325200  0.47226800  1
  C  245  1  0.21578100  0.84018700  0.49230800  1
  C  246  1  0.23828100  0.86843300  0.47255100  1
  C  249  1  0.16634600  0.78852000  0.49433300  1
  C  250  1  0.12633500  0.79996000  0.49793000  1
  C  251  1  0.10075900  0.77960800  0.52266200  1
  C  252  1  0.11445100  0.74718800  0.54435500  1
  C  253  1  0.15428700  0.73525200  0.53994500  1
  C  254  1  0.18072800  0.75547600  0.51535900  1
  C  265  1  0.73638700  0.50358500  0.32298900  1
  C  266  1  0.71818400  0.53820400  0.33727900  1
  C  267  1  0.70165200  0.56696500  0.31258200  1
  C  268  1  0.70383900  0.56065700  0.27232700  1
  C  269  1  0.72394500  0.52711400  0.25801600  1
  C  270  1  0.74034500  0.49910000  0.28300900  1
  C  273  1  0.67939700  0.58142900  0.24609100  1
  C  274  1  0.63856100  0.57248400  0.24728800  1
  C  275  1  0.61305400  0.58561100  0.21836500  1
  C  276  1  0.62781900  0.60828600  0.18773500  1
  C  277  1  0.66825600  0.61857000  0.18705600  1
  C  278  1  0.69464300  0.60511400  0.21576300  1
  C  289  1  0.42132700  0.36643000  0.82675500  1
  C  290  1  0.43090200  0.32651300  0.83392600  1
  C  291  1  0.44455200  0.30132900  0.80436600  1
  C  292  1  0.44929300  0.31725800  0.76683900  1
  C  293  1  0.43908900  0.35716900  0.75978800  1
  C  294  1  0.42465600  0.38134300  0.78924200  1
  C  297  1  0.46954700  0.29682100  0.73714400  1
  C  298  1  0.51018500  0.28903700  0.74303200  1
  C  299  1  0.53375600  0.27391400  0.71347500  1
  C  300  1  0.51745100  0.26731000  0.67691500  1
  C  301  1  0.47683900  0.27463400  0.67090700  1
  C  302  1  0.45227600  0.28895500  0.70068500  1
  C  313  1  0.02365400  0.53296900  0.57321100  1
  C  314  1  0.00857800  0.49691900  0.58794000  1
  C  315  1  0.99064900  0.46785600  0.56438500  1
  C  316  1  0.98608800  0.47589700  0.52457500  1
  C  317  1  0.99909800  0.51272100  0.51011000  1
  C  318  1  0.01830600  0.54017300  0.53367300  1
  C  321  1  0.96685400  0.44989300  0.49830200  1
  C  322  1  0.92652600  0.44115600  0.50451100  1
  C  323  1  0.90393700  0.42209300  0.47633100  1
  C  324  1  0.92000500  0.41313100  0.43991200  1
  C  325  1  0.96090600  0.42041100  0.43462000  1
  C  326  1  0.98485800  0.43770900  0.46333200  1
  C  337  1  0.58690900  0.78403600  0.04597600  1
  C  338  1  0.60194900  0.82224100  0.05394900  1
  C  339  1  0.62473300  0.84384600  0.02719200  1
  C  340  1  0.63411800  0.82579700  0.99146700  1
  C  341  1  0.61951300  0.78756800  0.98333700  1
  C  342  1  0.59575900  0.76737400  0.00984900  1
  C  345  1  0.66082200  0.84327600  0.96490800  1
  C  346  1  0.70026500  0.84889500  0.97708200  1
  C  347  1  0.72821700  0.86664200  0.95298300  1
  C  348  1  0.71825200  0.87817000  0.91529300  1
  C  349  1  0.67901500  0.87115900  0.90282900  1
  C  350  1  0.64983400  0.85446700  0.92704900  1
  C  361  1  0.13252600  0.06602400  0.17821600  1
  C  362  1  0.15067800  0.02856100  0.17379800  1
  C  363  1  0.17040800  0.00918100  0.20424000  1
  C  364  1  0.17391200  0.02915600  0.24002200  1
  C  365  1  0.15829300  0.06768200  0.24386400  1
  C  366  1  0.13728700  0.08540100  0.21380800  1
  C  369  1  0.19279800  0.01207400  0.27248200  1
  C  370  1  0.23362700  0.00388500  0.26983100  1
  C  371  1  0.25379800  0.98585700  0.30022100  1
  C  372  1  0.23452400  0.97705100  0.33518000  1
  C  373  1  0.19398200  0.98704200  0.33814700  1
  C  374  1  0.17241100  0.00350000  0.30723800  1
  C  385  1  0.23487000  0.38938600  0.94294900  1
  C  386  1  0.21118200  0.35943600  0.92655000  1
  C  387  1  0.19000600  0.33214400  0.94940100  1
  C  388  1  0.19252500  0.33564100  0.98998100  1
  C  389  1  0.21649200  0.36538100  0.00641400  1
  C  390  1  0.23783600  0.39165300  0.98316200  1
  C  393  1  0.16965100  0.31175800  0.01499900  1
  C  394  1  0.12872600  0.31973600  0.01725600  1
  C  395  1  0.10422600  0.29764300  0.04156600  1
  C  396  1  0.11988700  0.26702300  0.06448800  1
  C  397  1  0.16093400  0.25925600  0.06219000  1
  C  398  1  0.18629100  0.28106700  0.03776600  1
  C  409  1  0.75179900  0.98130500  0.82028000  1
  C  410  1  0.72712900  0.01192000  0.83409800  1
  C  411  1  0.71101600  0.04101000  0.80947800  1
  C  412  1  0.72044200  0.03933000  0.76978600  1
  C  413  1  0.74628300  0.00970400  0.75611400  1
  C  414  1  0.76195800  0.98123700  0.78106600  1
  C  417  1  0.69982200  0.06190100  0.74196700  1
  C  418  1  0.66116500  0.04926900  0.73275100  1
  C  419  1  0.64026000  0.06679000  0.70256900  1
  C  420  1  0.65739900  0.09751100  0.68087600  1
  C  421  1  0.69556800  0.11101900  0.69085300  1
  C  422  1  0.71748400  0.09334500  0.72093800  1
  C  433  1  0.58051200  0.07630000  0.56324500  1
  C  434  1  0.55626200  0.04544200  0.57719500  1
  C  435  1  0.53193200  0.02280300  0.55256900  1
  C  436  1  0.53267100  0.03131100  0.51264400  1
  C  437  1  0.55774000  0.06130800  0.49843400  1
  C  438  1  0.58126900  0.08363500  0.52346400  1
  C  441  1  0.50714900  0.01218700  0.48633700  1
  C  442  1  0.47214300  0.03213800  0.47564100  1
  C  443  1  0.44506600  0.01456600  0.45040000  1
  C  444  1  0.45242400  0.97670000  0.43502700  1
  C  445  1  0.48751000  0.95686300  0.44595500  1
  C  446  1  0.51520700  0.97388900  0.47145700  1
  C  457  1  0.03447800  0.75747100  0.66174000  1
  C  458  1  0.00833100  0.78915300  0.65431400  1
  C  459  1  0.99005200  0.81061900  0.68433000  1
  C  460  1  0.99899400  0.80002800  0.72283600  1
  C  461  1  0.02606100  0.76925900  0.73038200  1
  C  462  1  0.04358000  0.74829900  0.70020900  1
  C  465  1  0.97999800  0.81769800  0.75467900  1
  C  466  1  0.94525800  0.79943900  0.76849400  1
  C  467  1  0.92482000  0.81530400  0.79989000  1
  C  468  1  0.93880800  0.84958900  0.81849900  1
  C  469  1  0.97381500  0.86754400  0.80470400  1
  C  470  1  0.99482200  0.85225300  0.77291600  1
  C  481  1  0.90426500  0.34759200  0.31401900  1
  C  482  1  0.92453700  0.31148600  0.31958700  1
  C  483  1  0.94494400  0.29236000  0.28941100  1
  C  484  1  0.94485600  0.31037400  0.25255700  1
  C  485  1  0.92418200  0.34609300  0.24664700  1
  C  486  1  0.90401700  0.36436400  0.27696900  1
  C  489  1  0.96680000  0.29474400  0.22149500  1
  C  490  1  0.00644000  0.30719700  0.21752200  1
  C  491  1  0.03077600  0.29088100  0.18909500  1
  C  492  1  0.01616800  0.26150000  0.16412200  1
  C  493  1  0.97620900  0.24974000  0.16773900  1
  C  494  1  0.95101600  0.26590500  0.19608400  1
  C  505  1  0.55755100  0.56028200  0.07349100  1
  C  506  1  0.54996300  0.52155700  0.08712600  1
  C  507  1  0.53702800  0.49068800  0.06273000  1
  C  508  1  0.53050100  0.49914200  0.02325600  1
  C  509  1  0.53918900  0.53744800  0.00936400  1
  C  510  1  0.55331500  0.56708700  0.03378400  1
  C  513  1  0.50900000  0.47358200  0.99827700  1
  C  514  1  0.46983400  0.46399300  0.00894400  1
  C  515  1  0.44363600  0.44668900  0.98277500  1
  C  516  1  0.45490400  0.43997300  0.94434900  1
  C  517  1  0.49470800  0.44794500  0.93429700  1
  C  518  1  0.52218000  0.46403400  0.96063500  1
  N  163  1  0.99095000  0.94355500  0.08500200  1
  N  166  1  0.03638100  0.96140600  0.96350200  1
  N  187  1  0.61495200  0.40511700  0.54973600  1
  N  190  1  0.59269100  0.37924700  0.42432200  1
  N  211  1  0.17097300  0.46443100  0.70523800  1
  N  214  1  0.13317200  0.52008200  0.81853300  1
  N  235  1  0.45224300  0.88458400  0.16611700  1
  N  238  1  0.52292800  0.86127100  0.27718300  1
  N  259  1  0.16800700  0.78863000  0.41052700  1
  N  262  1  0.21882600  0.74277100  0.51295700  1
  N  283  1  0.68343400  0.59905500  0.32809800  1
  N  286  1  0.73359300  0.61472400  0.21307800  1
  N  307  1  0.45265700  0.26292500  0.81292300  1
  N  310  1  0.41317800  0.29467900  0.69335900  1
  N  331  1  0.97970000  0.43291500  0.58058000  1
  N  334  1  0.02413400  0.44258300  0.45613600  1
  N  355  1  0.63642900  0.88111700  0.03667400  1
  N  358  1  0.61228500  0.85078900  0.91345700  1
  N  379  1  0.18372100  0.97166600  0.19831500  1
  N  382  1  0.13281600  0.00918500  0.31174000  1
  N  403  1  0.16842500  0.30351900  0.93167900  1
  N  406  1  0.22536600  0.27152600  0.03663400  1
  N  427  1  0.68672400  0.06909600  0.82447600  1
  N  430  1  0.75453600  0.10685000  0.72858100  1
  N  451  1  0.50805100  0.99467800  0.56815100  1
  N  454  1  0.54833400  0.95311400  0.48066100  1
  N  475  1  0.96430600  0.84009800  0.67530300  1
  N  478  1  0.02806900  0.87121800  0.76089900  1
  N  499  1  0.96424900  0.25790600  0.29692000  1
  N  502  1  0.91302300  0.25287900  0.19835100  1
  N  523  1  0.53109200  0.45410600  0.07792400  1
  N  526  1  0.56001900  0.47038100  0.94885900  1
