# generated using pymatgen
data_Zn3H26C38(NO3)3
_symmetry_space_group_name_H-M   'P 1'
_cell_length_a   12.98911000
_cell_length_b   16.35317000
_cell_length_c   17.64006000
_cell_angle_alpha   70.28238000
_cell_angle_beta   71.76276000
_cell_angle_gamma   71.48689000
_symmetry_Int_Tables_number   1
_chemical_formula_structural   Zn3H26C38(NO3)3
_chemical_formula_sum   'Zn6 H52 C76 N6 O18'
_cell_volume   3254.62205600
_cell_formula_units_Z   2
loop_
 _symmetry_equiv_pos_site_id
 _symmetry_equiv_pos_as_xyz
  1  'x, y, z'
loop_
 _atom_site_type_symbol
 _atom_site_label
 _atom_site_symmetry_multiplicity
 _atom_site_fract_x
 _atom_site_fract_y
 _atom_site_fract_z
 _atom_site_occupancy
  Zn  Zn0  1  0.52318000  0.65153000  0.96672000  1
  Zn  Zn1  1  0.63890000  0.53537000  0.83937000  1
  Zn  Zn2  1  0.37079000  0.60324000  0.88027000  1
  Zn  Zn3  1  0.47682000  0.34847000  0.03328000  1
  Zn  Zn4  1  0.36110000  0.46464000  0.16063000  1
  Zn  Zn5  1  0.62921000  0.39676000  0.11973000  1
  H  H6  1  0.34516000  0.63963000  0.63324000  1
  H  H7  1  0.35267000  0.64311000  0.49029000  1
  H  H8  1  0.71185000  0.58152000  0.43777000  1
  H  H9  1  0.70192000  0.57301000  0.58279000  1
  H  H10  1  0.85511000  0.29228000  0.76094000  1
  H  H11  1  0.00438000  0.15292000  0.75700000  1
  H  H12  1  0.00154000  0.11504000  0.01148000  1
  H  H13  1  0.85423000  0.25462000  0.01394000  1
  H  H14  1  0.04270000  0.68306000  0.75039000  1
  H  H15  1  0.23563000  0.67182000  0.75897000  1
  H  H16  1  0.16206000  0.56856000  0.01278000  1
  H  H17  1  0.96395000  0.58120000  0.01673000  1
  H  H18  1  0.71442000  0.52538000  0.20804000  1
  H  H19  1  0.70752000  0.53052000  0.34842000  1
  H  H20  1  0.37019000  0.69217000  0.36419000  1
  H  H21  1  0.37900000  0.68455000  0.22384000  1
  H  H22  1  0.19885000  0.86358000  0.79659000  1
  H  H23  1  0.05102000  0.00466000  0.79595000  1
  H  H24  1  0.18001000  0.05613000  0.96808000  1
  H  H25  1  0.32651000  0.91422000  0.96850000  1
  H  H26  1  0.87569000  0.51689000  0.74749000  1
  H  H27  1  0.94729000  0.60462000  0.70528000  1
  H  H28  1  0.99527000  0.50848000  0.78135000  1
  H  H29  1  0.66243000  0.74564000  0.01278000  1
  H  H30  1  0.76178000  0.65664000  0.06013000  1
  H  H31  1  0.80513000  0.75072000  0.98503000  1
  H  H32  1  0.65484000  0.36037000  0.36677000  1
  H  H33  1  0.64734000  0.35689000  0.50971000  1
  H  H34  1  0.28816000  0.41848000  0.56223000  1
  H  H35  1  0.29809000  0.42699000  0.41721000  1
  H  H36  1  0.14490000  0.70772000  0.23906000  1
  H  H37  1  0.99562000  0.84708000  0.24300000  1
  H  H38  1  0.99846000  0.88496000  0.98853000  1
  H  H39  1  0.14577000  0.74539000  0.98606000  1
  H  H40  1  0.95730000  0.31694000  0.24962000  1
  H  H41  1  0.76437000  0.32818000  0.24103000  1
  H  H42  1  0.83795000  0.43144000  0.98722000  1
  H  H43  1  0.03605000  0.41880000  0.98327000  1
  H  H44  1  0.28558000  0.47462000  0.79196000  1
  H  H45  1  0.29248000  0.46948000  0.65159000  1
  H  H46  1  0.62982000  0.30784000  0.63582000  1
  H  H47  1  0.62100000  0.31545000  0.77616000  1
  H  H48  1  0.80116000  0.13643000  0.20341000  1
  H  H49  1  0.94898000  0.99535000  0.20405000  1
  H  H50  1  0.82000000  0.94388000  0.03192000  1
  H  H51  1  0.67350000  0.08579000  0.03150000  1
  H  H52  1  0.12431000  0.48311000  0.25251000  1
  H  H53  1  0.05271000  0.39538000  0.29472000  1
  H  H54  1  0.00474000  0.49152000  0.21866000  1
  H  H55  1  0.33757000  0.25437000  0.98723000  1
  H  H56  1  0.23822000  0.34336000  0.93987000  1
  H  H57  1  0.19487000  0.24929000  0.01497000  1
  C  C58  1  0.55470000  0.60037000  0.12331000  1
  C  C59  1  0.52296000  0.60577000  0.61731000  1
  C  C60  1  0.42500000  0.62725000  0.58965000  1
  C  C61  1  0.42978000  0.62977000  0.50909000  1
  C  C62  1  0.53292000  0.61210000  0.45234000  1
  C  C63  1  0.63087000  0.59291000  0.48033000  1
  C  C64  1  0.62619000  0.58919000  0.56125000  1
  C  C65  1  0.84552000  0.28268000  0.88758000  1
  C  C66  1  0.88778000  0.25274000  0.81542000  1
  C  C67  1  0.97118000  0.17449000  0.81370000  1
  C  C68  1  0.01559000  0.12394000  0.88365000  1
  C  C69  1  0.97214000  0.15451000  0.95567000  1
  C  C70  1  0.88825000  0.23228000  0.95771000  1
  C  C71  1  0.98537000  0.63184000  0.88324000  1
  C  C72  1  0.06515000  0.65726000  0.80997000  1
  C  C73  1  0.17221000  0.65179000  0.81391000  1
  C  C74  1  0.13070000  0.59494000  0.95672000  1
  C  C75  1  0.02072000  0.60240000  0.95793000  1
  C  C76  1  0.54760000  0.60526000  0.20752000  1
  C  C77  1  0.64033000  0.56253000  0.24284000  1
  C  C78  1  0.63583000  0.56608000  0.32131000  1
  C  C79  1  0.53826000  0.61185000  0.36762000  1
  C  C80  1  0.44592000  0.65499000  0.33091000  1
  C  C81  1  0.45026000  0.65196000  0.25207000  1
  C  C82  1  0.19442000  0.90711000  0.83298000  1
  C  C83  1  0.11218000  0.98616000  0.83278000  1
  C  C84  1  0.10438000  0.04113000  0.88206000  1
  C  C85  1  0.18340000  0.01408000  0.93059000  1
  C  C86  1  0.26634000  0.93539000  0.93041000  1
  C  C87  1  0.27215000  0.88079000  0.88195000  1
  C  C88  1  0.51765000  0.59851000  0.70555000  1
  C  C89  1  0.35480000  0.79195000  0.88679000  1
  C  C90  1  0.75915000  0.36827000  0.89041000  1
  C  C91  1  0.91990000  0.55466000  0.76220000  1
  C  C92  1  0.84601000  0.59767000  0.82913000  1
  C  C93  1  0.87397000  0.63202000  0.88181000  1
  C  C94  1  0.77100000  0.66192000  0.93487000  1
  C  C95  1  0.74894000  0.70633000  0.00155000  1
  C  C96  1  0.44531000  0.39964000  0.87669000  1
  C  C97  1  0.47704000  0.39424000  0.38269000  1
  C  C98  1  0.57501000  0.37275000  0.41035000  1
  C  C99  1  0.57023000  0.37023000  0.49091000  1
  C  C100  1  0.46708000  0.38790000  0.54766000  1
  C  C101  1  0.36914000  0.40709000  0.51967000  1
  C  C102  1  0.37382000  0.41082000  0.43875000  1
  C  C103  1  0.15449000  0.71732000  0.11243000  1
  C  C104  1  0.11223000  0.74726000  0.18458000  1
  C  C105  1  0.02883000  0.82551000  0.18630000  1
  C  C106  1  0.98442000  0.87607000  0.11635000  1
  C  C107  1  0.02786000  0.84549000  0.04433000  1
  C  C108  1  0.11175000  0.76773000  0.04229000  1
  C  C109  1  0.01463000  0.36816000  0.11676000  1
  C  C110  1  0.93486000  0.34274000  0.19004000  1
  C  C111  1  0.82780000  0.34821000  0.18609000  1
  C  C112  1  0.86931000  0.40506000  0.04328000  1
  C  C113  1  0.97929000  0.39760000  0.04207000  1
  C  C114  1  0.45240000  0.39474000  0.79249000  1
  C  C115  1  0.35968000  0.43747000  0.75716000  1
  C  C116  1  0.36417000  0.43392000  0.67869000  1
  C  C117  1  0.46174000  0.38815000  0.63238000  1
  C  C118  1  0.55408000  0.34501000  0.66910000  1
  C  C119  1  0.54975000  0.34805000  0.74793000  1
  C  C120  1  0.80558000  0.09289000  0.16702000  1
  C  C121  1  0.88782000  0.01384000  0.16723000  1
  C  C122  1  0.89562000  0.95887000  0.11795000  1
  C  C123  1  0.81660000  0.98593000  0.06941000  1
  C  C124  1  0.73367000  0.06462000  0.06959000  1
  C  C125  1  0.72785000  0.11921000  0.11805000  1
  C  C126  1  0.48235000  0.40149000  0.29445000  1
  C  C127  1  0.64520000  0.20805000  0.11322000  1
  C  C128  1  0.24085000  0.63173000  0.10959000  1
  C  C129  1  0.08010000  0.44534000  0.23780000  1
  C  C130  1  0.15399000  0.40233000  0.17088000  1
  C  C131  1  0.12603000  0.36798000  0.11819000  1
  C  C132  1  0.22900000  0.33808000  0.06513000  1
  C  C133  1  0.25106000  0.29367000  0.99845000  1
  N  N134  1  0.73480000  0.60601000  0.85048000  1
  N  N135  1  0.68877000  0.64715000  0.91393000  1
  N  N136  1  0.20551000  0.62003000  0.88589000  1
  N  N137  1  0.26520000  0.39399000  0.14953000  1
  N  N138  1  0.31123000  0.35286000  0.08607000  1
  N  N139  1  0.79450000  0.37997000  0.11412000  1
  O  O140  1  0.50420000  0.56689000  0.92080000  1
  O  O141  1  0.62760000  0.53925000  0.09413000  1
  O  O142  1  0.48768000  0.66204000  0.08169000  1
  O  O143  1  0.42165000  0.61153000  0.75363000  1
  O  O144  1  0.61133000  0.57906000  0.72470000  1
  O  O145  1  0.42712000  0.77405000  0.92867000  1
  O  O146  1  0.34368000  0.74172000  0.84976000  1
  O  O147  1  0.73835000  0.42014000  0.81999000  1
  O  O148  1  0.71345000  0.38884000  0.95784000  1
  O  O149  1  0.49580000  0.43311000  0.07920000  1
  O  O150  1  0.37241000  0.46076000  0.90588000  1
  O  O151  1  0.51232000  0.33796000  0.91831000  1
  O  O152  1  0.57835000  0.38847000  0.24637000  1
  O  O153  1  0.38867000  0.42094000  0.27530000  1
  O  O154  1  0.57288000  0.22595000  0.07133000  1
  O  O155  1  0.65632000  0.25828000  0.15025000  1
  O  O156  1  0.26165000  0.57986000  0.18001000  1
  O  O157  1  0.28655000  0.61117000  0.04216000  1
