# generated using pymatgen
data_Zn3H4(C5O4)4
_symmetry_space_group_name_H-M   'P 1'
_cell_length_a   13.44671000
_cell_length_b   13.44886000
_cell_length_c   17.47657000
_cell_angle_alpha   92.77601000
_cell_angle_beta   92.78669000
_cell_angle_gamma   90.25655000
_symmetry_Int_Tables_number   1
_chemical_formula_structural   Zn3H4(C5O4)4
_chemical_formula_sum   'Zn12 H16 C80 O64'
_cell_volume   3152.99810788
_cell_formula_units_Z   4
loop_
 _symmetry_equiv_pos_site_id
 _symmetry_equiv_pos_as_xyz
  1  'x, y, z'
loop_
 _atom_site_type_symbol
 _atom_site_label
 _atom_site_symmetry_multiplicity
 _atom_site_fract_x
 _atom_site_fract_y
 _atom_site_fract_z
 _atom_site_occupancy
  Zn  Zn0  1  0.99727000  0.47786000  0.74499000  1
  Zn  Zn1  1  0.24682000  0.55171000  0.82314000  1
  Zn  Zn2  1  0.52217000  0.00274000  0.75503000  1
  Zn  Zn3  1  0.44831000  0.75320000  0.67688000  1
  Zn  Zn4  1  0.00274000  0.52214000  0.25501000  1
  Zn  Zn5  1  0.75319000  0.44829000  0.17687000  1
  Zn  Zn6  1  0.47784000  0.99726000  0.24497000  1
  Zn  Zn7  1  0.55169000  0.24680000  0.32312000  1
  Zn  Zn8  1  0.00801000  0.99203000  0.75007000  1
  Zn  Zn9  1  0.53777000  0.46225000  0.75004000  1
  Zn  Zn10  1  0.99199000  0.00797000  0.24990000  1
  Zn  Zn11  1  0.46223000  0.53775000  0.24999000  1
  H  H12  1  0.03291000  0.56942000  0.02177000  1
  H  H13  1  0.97255000  0.92632000  0.97271000  1
  H  H14  1  0.43010000  0.54732000  0.48531000  1
  H  H15  1  0.07829000  0.47089000  0.53736000  1
  H  H16  1  0.43058000  0.96707000  0.47826000  1
  H  H17  1  0.07363000  0.02747000  0.52726000  1
  H  H18  1  0.45271000  0.56994000  0.01472000  1
  H  H19  1  0.52907000  0.92170000  0.96263000  1
  H  H20  1  0.96710000  0.43058000  0.97823000  1
  H  H21  1  0.02744000  0.07368000  0.02729000  1
  H  H22  1  0.56991000  0.45268000  0.51470000  1
  H  H23  1  0.92171000  0.52911000  0.46265000  1
  H  H24  1  0.56942000  0.03294000  0.52174000  1
  H  H25  1  0.92637000  0.97253000  0.47274000  1
  H  H26  1  0.54729000  0.43006000  0.98529000  1
  H  H27  1  0.47094000  0.07830000  0.03738000  1
  C  C28  1  0.01167000  0.78348000  0.92351000  1
  C  C29  1  0.02963000  0.68177000  0.93758000  1
  C  C30  1  0.01776000  0.64672000  0.01030000  1
  C  C31  1  0.98968000  0.71142000  0.07035000  1
  C  C32  1  0.97343000  0.81395000  0.05705000  1
  C  C33  1  0.98480000  0.84835000  0.98367000  1
  C  C34  1  0.03574000  0.82511000  0.84833000  1
  C  C35  1  0.06048000  0.61140000  0.87456000  1
  C  C36  1  0.96987000  0.66798000  0.14532000  1
  C  C37  1  0.95328000  0.88728000  0.12115000  1
  C  C38  1  0.22373000  0.50778000  0.58711000  1
  C  C39  1  0.32398000  0.52972000  0.57250000  1
  C  C40  1  0.35341000  0.52989000  0.49700000  1
  C  C41  1  0.28526000  0.50658000  0.43550000  1
  C  C42  1  0.18486000  0.48565000  0.45005000  1
  C  C43  1  0.15545000  0.48584000  0.52585000  1
  C  C44  1  0.18922000  0.51183000  0.66708000  1
  C  C45  1  0.40289000  0.54166000  0.63591000  1
  C  C46  1  0.32339000  0.49596000  0.35642000  1
  C  C47  1  0.10759000  0.47134000  0.38590000  1
  C  C48  1  0.21649000  0.98834000  0.57649000  1
  C  C49  1  0.31821000  0.97038000  0.56243000  1
  C  C50  1  0.35327000  0.98223000  0.48971000  1
  C  C51  1  0.28857000  0.01031000  0.42964000  1
  C  C52  1  0.18602000  0.02655000  0.44293000  1
  C  C53  1  0.15161000  0.01519000  0.51632000  1
  C  C54  1  0.17487000  0.96428000  0.65168000  1
  C  C55  1  0.38861000  0.93952000  0.62545000  1
  C  C56  1  0.33201000  0.03012000  0.35467000  1
  C  C57  1  0.11269000  0.04672000  0.37881000  1
  C  C58  1  0.49224000  0.77628000  0.91289000  1
  C  C59  1  0.47034000  0.67603000  0.92750000  1
  C  C60  1  0.47013000  0.64661000  0.00301000  1
  C  C61  1  0.49341000  0.71476000  0.06451000  1
  C  C62  1  0.51433000  0.81515000  0.04995000  1
  C  C63  1  0.51414000  0.84456000  0.97416000  1
  C  C64  1  0.48818000  0.81079000  0.83293000  1
  C  C65  1  0.45844000  0.59713000  0.86410000  1
  C  C66  1  0.50403000  0.67662000  0.14359000  1
  C  C67  1  0.52865000  0.89241000  0.11409000  1
  C  C68  1  0.98832000  0.21652000  0.07648000  1
  C  C69  1  0.97038000  0.31823000  0.06242000  1
  C  C70  1  0.98224000  0.35327000  0.98970000  1
  C  C71  1  0.01032000  0.28858000  0.92965000  1
  C  C72  1  0.02657000  0.18605000  0.94295000  1
  C  C73  1  0.01519000  0.15165000  0.01633000  1
  C  C74  1  0.96427000  0.17490000  0.15166000  1
  C  C75  1  0.93953000  0.38860000  0.12544000  1
  C  C76  1  0.03013000  0.33202000  0.85468000  1
  C  C77  1  0.04672000  0.11272000  0.87884000  1
  C  C78  1  0.77628000  0.49222000  0.41289000  1
  C  C79  1  0.67603000  0.47028000  0.42750000  1
  C  C80  1  0.64659000  0.47011000  0.50301000  1
  C  C81  1  0.71474000  0.49341000  0.56451000  1
  C  C82  1  0.81514000  0.51435000  0.54996000  1
  C  C83  1  0.84456000  0.51416000  0.47416000  1
  C  C84  1  0.81079000  0.48817000  0.33293000  1
  C  C85  1  0.59712000  0.45835000  0.36409000  1
  C  C86  1  0.67662000  0.50404000  0.64359000  1
  C  C87  1  0.89241000  0.52866000  0.61410000  1
  C  C88  1  0.78352000  0.01165000  0.42350000  1
  C  C89  1  0.68179000  0.02962000  0.43756000  1
  C  C90  1  0.64674000  0.01777000  0.51029000  1
  C  C91  1  0.71143000  0.98969000  0.57035000  1
  C  C92  1  0.81398000  0.97344000  0.55706000  1
  C  C93  1  0.84839000  0.98480000  0.48368000  1
  C  C94  1  0.82513000  0.03572000  0.34831000  1
  C  C95  1  0.61139000  0.06048000  0.37455000  1
  C  C96  1  0.66799000  0.96988000  0.64533000  1
  C  C97  1  0.88731000  0.95327000  0.62118000  1
  C  C98  1  0.50776000  0.22372000  0.08711000  1
  C  C99  1  0.52967000  0.32397000  0.07250000  1
  C  C100  1  0.52987000  0.35339000  0.99700000  1
  C  C101  1  0.50659000  0.28523000  0.93550000  1
  C  C102  1  0.48567000  0.18485000  0.95005000  1
  C  C103  1  0.48586000  0.15544000  0.02585000  1
  C  C104  1  0.51182000  0.18921000  0.16708000  1
  C  C105  1  0.54157000  0.40287000  0.13591000  1
  C  C106  1  0.49597000  0.32338000  0.85643000  1
  C  C107  1  0.47136000  0.10759000  0.88591000  1
  O  O108  1  0.97536000  0.88944000  0.82135000  1
  O  O109  1  0.11620000  0.79626000  0.82191000  1
  O  O110  1  0.00587000  0.60430000  0.81415000  1
  O  O111  1  0.14004000  0.56046000  0.89017000  1
  O  O112  1  0.03487000  0.60597000  0.17074000  1
  O  O113  1  0.88912000  0.68913000  0.17416000  1
  O  O114  1  0.01350000  0.88543000  0.18063000  1
  O  O115  1  0.88514000  0.94963000  0.11363000  1
  O  O116  1  0.11551000  0.45899000  0.68169000  1
  O  O117  1  0.23979000  0.57037000  0.71552000  1
  O  O118  1  0.41533000  0.46889000  0.67800000  1
  O  O119  1  0.46002000  0.61925000  0.63937000  1
  O  O120  1  0.30992000  0.41526000  0.31877000  1
  O  O121  1  0.37485000  0.56961000  0.33444000  1
  O  O122  1  0.03945000  0.40904000  0.39042000  1
  O  O123  1  0.11499000  0.52999000  0.32976000  1
  O  O124  1  0.11056000  0.02464000  0.67869000  1
  O  O125  1  0.20373000  0.88380000  0.67808000  1
  O  O126  1  0.39573000  0.99412000  0.68585000  1
  O  O127  1  0.43955000  0.85997000  0.60984000  1
  O  O128  1  0.39400000  0.96512000  0.32925000  1
  O  O129  1  0.31087000  0.11088000  0.32584000  1
  O  O130  1  0.11454000  0.98659000  0.31931000  1
  O  O131  1  0.05034000  0.11486000  0.38636000  1
  O  O132  1  0.54101000  0.88449000  0.81832000  1
  O  O133  1  0.42964000  0.76021000  0.78449000  1
  O  O134  1  0.53124000  0.58468000  0.82204000  1
  O  O135  1  0.38083000  0.53999000  0.86061000  1
  O  O136  1  0.58475000  0.69009000  0.18124000  1
  O  O137  1  0.43038000  0.62515000  0.16555000  1
  O  O138  1  0.59095000  0.96055000  0.10957000  1
  O  O139  1  0.47000000  0.88501000  0.17024000  1
  O  O140  1  0.02465000  0.11057000  0.17864000  1
  O  O141  1  0.88380000  0.20374000  0.17809000  1
  O  O142  1  0.99413000  0.39570000  0.18585000  1
  O  O143  1  0.85996000  0.43954000  0.10983000  1
  O  O144  1  0.96513000  0.39403000  0.82926000  1
  O  O145  1  0.11088000  0.31087000  0.82584000  1
  O  O146  1  0.98652000  0.11457000  0.81936000  1
  O  O147  1  0.11486000  0.05036000  0.88637000  1
  O  O148  1  0.88449000  0.54101000  0.31832000  1
  O  O149  1  0.76021000  0.42963000  0.28449000  1
  O  O150  1  0.58468000  0.53111000  0.32201000  1
  O  O151  1  0.53998000  0.38076000  0.36063000  1
  O  O152  1  0.69009000  0.58474000  0.68123000  1
  O  O153  1  0.62516000  0.43039000  0.66558000  1
  O  O154  1  0.96055000  0.59096000  0.60958000  1
  O  O155  1  0.88501000  0.47001000  0.67024000  1
  O  O156  1  0.88944000  0.97537000  0.32130000  1
  O  O157  1  0.79628000  0.11620000  0.32192000  1
  O  O158  1  0.60427000  0.00588000  0.31415000  1
  O  O159  1  0.56046000  0.14003000  0.39017000  1
  O  O160  1  0.60600000  0.03488000  0.67075000  1
  O  O161  1  0.68913000  0.88913000  0.67416000  1
  O  O162  1  0.88546000  0.01343000  0.68067000  1
  O  O163  1  0.94966000  0.88514000  0.61364000  1
  O  O164  1  0.45899000  0.11551000  0.18168000  1
  O  O165  1  0.57036000  0.23979000  0.21552000  1
  O  O166  1  0.46878000  0.41532000  0.17797000  1
  O  O167  1  0.61918000  0.46001000  0.13939000  1
  O  O168  1  0.41526000  0.30991000  0.81876000  1
  O  O169  1  0.56963000  0.37485000  0.83448000  1
  O  O170  1  0.40905000  0.03945000  0.89043000  1
  O  O171  1  0.53000000  0.11499000  0.82976000  1
