# generated using pymatgen
data_H26C43(N3O2)2
_symmetry_space_group_name_H-M   'P 1'
_cell_length_a   30.40270000
_cell_length_b   37.20698924
_cell_length_c   37.20698811
_cell_angle_alpha   80.39098058
_cell_angle_beta   65.87275759
_cell_angle_gamma   65.88548692
_symmetry_Int_Tables_number   1
_chemical_formula_structural   H26C43(N3O2)2
_chemical_formula_sum   'H208 C344 N48 O32'
_cell_volume   35059.30695956
_cell_formula_units_Z   8
loop_
 _symmetry_equiv_pos_site_id
 _symmetry_equiv_pos_as_xyz
  1  'x, y, z'
loop_
 _atom_site_type_symbol
 _atom_site_label
 _atom_site_symmetry_multiplicity
 _atom_site_fract_x
 _atom_site_fract_y
 _atom_site_fract_z
 _atom_site_occupancy
  C  1  1  0.91566900  0.69073550  0.13549350  1
  C  2  1  0.96179100  0.69841500  0.11540500  1
  C  3  1  0.01563700  0.62474300  0.10667700  1
  C  4  1  0.97010050  0.61665850  0.12837050  1
  C  5  1  0.97423600  0.57689250  0.13406750  1
  C  6  1  0.02204950  0.54479450  0.11848650  1
  C  7  1  0.06694250  0.55359750  0.09690250  1
  C  8  1  0.06382800  0.59284000  0.09135900  1
  C  9  1  0.95821050  0.73792450  0.11121750  1
  C  10  1  0.91019650  0.76921900  0.12807100  1
  C  11  1  0.86400350  0.76201750  0.14887350  1
  C  12  1  0.86741350  0.72278200  0.15082100  1
  C  13  1  0.88680600  0.64470700  0.12222100  1
  C  14  1  0.84183650  0.63564400  0.14295300  1
  C  15  1  0.85101700  0.63646150  0.20782950  1
  C  16  1  0.89654100  0.64498200  0.18774500  1
  C  17  1  0.83261800  0.63302150  0.24930450  1
  C  18  1  0.85753100  0.63938250  0.27084450  1
  C  19  1  0.90207000  0.64907300  0.25166200  1
  C  20  1  0.92156650  0.65082200  0.21007000  1
  C  21  1  0.90513250  0.64691900  0.08044700  1
  C  22  1  0.88101250  0.63943450  0.05869750  1
  C  23  1  0.83568550  0.63113800  0.08007500  1
  C  24  1  0.81623300  0.62959950  0.12151850  1
  C  37  1  0.91722500  0.64930300  0.14346800  1
  C  38  1  0.82178150  0.63125350  0.18657650  1
  C  41  1  0.01372500  0.66589250  0.09937250  1
  C  44  1  0.92562400  0.65602050  0.27359150  1
  C  45  1  0.81710050  0.79184600  0.16898000  1
  C  46  1  0.90483200  0.63757600  0.01774000  1
  C  50  1  0.02450600  0.50605600  0.12326900  1
  C  52  1  0.74486950  0.47842050  0.68937350  1
  C  53  1  0.77866000  0.47074950  0.70938250  1
  C  54  1  0.75010650  0.54442600  0.71809400  1
  C  55  1  0.71809250  0.55250300  0.69648300  1
  C  56  1  0.68815950  0.59226800  0.69078400  1
  C  57  1  0.68835050  0.62436900  0.70630700  1
  C  58  1  0.72054850  0.61557450  0.72780950  1
  C  59  1  0.75113200  0.57633450  0.73335350  1
  C  60  1  0.81046550  0.43124400  0.71351300  1
  C  61  1  0.81058850  0.39994950  0.69667350  1
  C  62  1  0.77789950  0.40714100  0.67596700  1
  C  63  1  0.74397050  0.44637000  0.67407200  1
  C  64  1  0.65667350  0.52444250  0.70272750  1
  C  65  1  0.62332550  0.53350300  0.68204500  1
  C  66  1  0.69815750  0.53268750  0.61711350  1
  C  67  1  0.73215600  0.52417100  0.63715100  1
  C  68  1  0.71776250  0.53611300  0.57563700  1
  C  69  1  0.77058600  0.52973450  0.55405150  1
  C  70  1  0.80567500  0.52003200  0.57319200  1
  C  71  1  0.78534750  0.51833050  0.61478450  1
  C  72  1  0.63548650  0.52222300  0.74450400  1
  C  73  1  0.58214550  0.52965800  0.76630800  1
  C  74  1  0.54984850  0.53796550  0.74497850  1
  C  75  1  0.57024000  0.53955750  0.70353550  1
  C  88  1  0.71293350  0.51985150  0.68142650  1
  C  89  1  0.64245450  0.53789800  0.63842200  1
  C  92  1  0.78208000  0.50327750  0.72536650  1
  C  95  1  0.85812800  0.51302100  0.55123300  1
  C  96  1  0.78097100  0.37732350  0.65582850  1
  C  97  1  0.56321550  0.53145600  0.80726800  1
  C  101  1  0.65687300  0.66310950  0.70150450  1
  C  103  1  0.47826750  0.86154150  0.51857850  1
  C  104  1  0.42446250  0.88164050  0.52628350  1
  C  105  1  0.44426150  0.89039500  0.45261400  1
  C  106  1  0.49788250  0.86868650  0.44450450  1
  C  107  1  0.53350100  0.86299600  0.40472600  1
  C  108  1  0.51777500  0.87859150  0.37264250  1
  C  109  1  0.46407800  0.90018900  0.38147100  1
  C  110  1  0.42796500  0.90574250  0.42072550  1
  C  111  1  0.38853950  0.88581350  0.56580450  1
  C  112  1  0.40527100  0.86896750  0.59708850  1
  C  113  1  0.45866400  0.84813250  0.58985350  1
  C  114  1  0.49448900  0.84620500  0.55061300  1
  C  115  1  0.55315600  0.87481900  0.47252700  1
  C  116  1  0.60719300  0.85409100  0.46343300  1
  C  117  1  0.59717800  0.78922400  0.46424000  1
  C  118  1  0.54312950  0.80930350  0.47279050  1
  C  119  1  0.61901350  0.74775450  0.46078450  1
  C  120  1  0.58773450  0.72621200  0.46715400  1
  C  121  1  0.53349450  0.74539200  0.47689000  1
  C  122  1  0.51225400  0.78697900  0.47864500  1
  C  123  1  0.53262200  0.91659000  0.47476800  1
  C  124  1  0.56424350  0.93833550  0.46725050  1
  C  125  1  0.61787550  0.91696100  0.45891000  1
  C  126  1  0.63885600  0.87552250  0.45736750  1
  C  139  1  0.51812950  0.85357400  0.47713300  1
  C  140  1  0.63163350  0.81047550  0.45901650  1
  C  143  1  0.40503500  0.89769600  0.49377800  1
  C  146  1  0.50298850  0.72345400  0.48388600  1
  C  147  1  0.47573200  0.82798250  0.61966150  1
  C  148  1  0.54229150  0.97928850  0.46539750  1
  C  152  1  0.55404600  0.87380300  0.33389300  1
  C  154  1  0.86138700  0.30760050  0.30629050  1
  C  155  1  0.83531800  0.28755400  0.29860600  1
  C  156  1  0.79018950  0.27881300  0.37228400  1
  C  157  1  0.81406150  0.30047350  0.38037350  1
  C  158  1  0.80421350  0.30617300  0.42014400  1
  C  159  1  0.77197250  0.29059500  0.45224100  1
  C  160  1  0.74863150  0.26904800  0.44343400  1
  C  161  1  0.75729600  0.26350900  0.40418900  1
  C  162  1  0.84305350  0.28341350  0.25909150  1
  C  163  1  0.87422550  0.30026400  0.22780300  1
  C  164  1  0.89964900  0.32102650  0.23501050  1
  C  165  1  0.89432350  0.32292850  0.27424750  1
  C  166  1  0.90352800  0.29428050  0.35231850  1
  C  167  1  0.92778600  0.31498400  0.36139200  1
  C  168  1  0.85374350  0.37988300  0.36059000  1
  C  169  1  0.82828650  0.35982550  0.35206750  1
  C  170  1  0.83068500  0.42135550  0.36403350  1
  C  171  1  0.78422700  0.44291600  0.35768200  1
  C  172  1  0.75885800  0.42375650  0.34798250  1
  C  173  1  0.78093650  0.38216900  0.34622800  1
  C  174  1  0.92696650  0.25250950  0.35008350  1
  C  175  1  0.97282900  0.23073800  0.35757400  1
  C  176  1  0.99679500  0.25208550  0.36588550  1
  C  177  1  0.97480750  0.29352350  0.36745350  1
  C  190  1  0.85186100  0.31555550  0.34772950  1
  C  191  1  0.90423500  0.35860300  0.36579500  1
  C  194  1  0.79939750  0.27153250  0.33112850  1
  C  197  1  0.71338900  0.44569900  0.34101400  1
  C  198  1  0.92643300  0.34114750  0.20519450  1
  C  199  1  0.98991400  0.18978750  0.35945250  1
  C  203  1  0.76471850  0.29538350  0.49098450  1
  C  205  1  0.08358800  0.86257850  0.30641050  1
  C  206  1  0.03664550  0.88193000  0.29974600  1
  C  207  1  0.98508850  0.89200350  0.37357150  1
  C  208  1  0.03144000  0.87105550  0.38074150  1
  C  209  1  0.02860650  0.86592000  0.42019200  1
  C  210  1  0.98128100  0.88110150  0.45279350  1
  C  211  1  0.93561000  0.90208650  0.44488850  1
  C  212  1  0.93746900  0.90725450  0.40598450  1
  C  213  1  0.03858950  0.88484650  0.26074450  1
  C  214  1  0.08583350  0.86753350  0.22898650  1
  C  215  1  0.13282100  0.84752100  0.23519800  1
  C  216  1  0.13105800  0.84679050  0.27382450  1
  C  217  1  0.11497650  0.87687650  0.35027250  1
  C  218  1  0.16039600  0.85638550  0.35880550  1
  C  219  1  0.15032400  0.79143050  0.36040850  1
  C  220  1  0.10426950  0.81127900  0.35256200  1
  C  221  1  0.16872100  0.74999900  0.36445300  1
  C  222  1  0.14326900  0.72821300  0.35930100  1
  C  223  1  0.09824500  0.74715900  0.35023700  1
  C  224  1  0.07864950  0.78872000  0.34807000  1
  C  225  1  0.09751100  0.91854050  0.34648050  1
  C  226  1  0.12318550  0.94047950  0.35150050  1
  C  227  1  0.16869450  0.91922850  0.35963050  1
  C  228  1  0.18707550  0.87792250  0.36300850  1
  C  241  1  0.08363200  0.85548250  0.34745650  1
  C  242  1  0.18015600  0.81290050  0.36424650  1
  C  245  1  0.98542500  0.89830250  0.33285550  1
  C  248  1  0.07440450  0.72516150  0.34389550  1
  C  249  1  0.17894350  0.82694450  0.20506750  1
  C  250  1  0.10178550  0.98155500  0.34976600  1
  C  254  1  0.97990900  0.87614700  0.49121300  1
  C  256  1  0.25563650  0.30632400  0.51872200  1
  C  257  1  0.22141550  0.28692850  0.52542250  1
  C  258  1  0.25370950  0.27686500  0.45160700  1
  C  259  1  0.28623550  0.29786600  0.44440200  1
  C  260  1  0.31769550  0.30300650  0.40493950  1
  C  261  1  0.31818100  0.28777800  0.37236000  1
  C  262  1  0.28563650  0.26674150  0.38029850  1
  C  263  1  0.25376800  0.26157700  0.41921500  1
  C  264  1  0.18735200  0.28395000  0.56444400  1
  C  265  1  0.18550450  0.30130550  0.59617750  1
  C  266  1  0.21868050  0.32133700  0.58993800  1
  C  267  1  0.25475850  0.32211400  0.55128800  1
  C  268  1  0.34516450  0.29209650  0.47479750  1
  C  269  1  0.37860350  0.31261700  0.46623200  1
  C  270  1  0.30510900  0.37753850  0.46467950  1
  C  271  1  0.27107250  0.35766200  0.47256700  1
  C  272  1  0.28608900  0.41896750  0.46062250  1
  C  273  1  0.23367650  0.44072950  0.46582550  1
  C  274  1  0.19856000  0.42175450  0.47488950  1
  C  275  1  0.21837750  0.38019700  0.47709400  1
  C  276  1  0.36562800  0.25043150  0.47856850  1
  C  277  1  0.41829100  0.22852450  0.47348750  1
  C  278  1  0.45064700  0.24980850  0.46533650  1
  C  279  1  0.43104400  0.29111700  0.46199200  1
  C  292  1  0.28958350  0.31345500  0.47766200  1
  C  293  1  0.36027100  0.35610250  0.46079550  1
  C  296  1  0.21967200  0.27053900  0.49233600  1
  C  299  1  0.14638100  0.44374450  0.48121750  1
  C  300  1  0.21415500  0.34187750  0.62006450  1
  C  301  1  0.43628850  0.18744750  0.47518650  1
  C  305  1  0.35029450  0.29270400  0.33393200  1
  C  307  1  0.52258550  0.47832800  0.13444200  1
  C  308  1  0.57620500  0.47164250  0.11507650  1
  C  309  1  0.55396100  0.54545350  0.10498750  1
  C  310  1  0.50042800  0.55264500  0.12597100  1
  C  311  1  0.46381950  0.59209950  0.13110750  1
  C  312  1  0.47855700  0.62468300  0.11588700  1
  C  313  1  0.53214450  0.61675600  0.09487600  1
  C  314  1  0.56918400  0.57784850  0.08970850  1
  C  315  1  0.61325050  0.43263550  0.11214550  1
  C  316  1  0.59773950  0.40089850  0.12948650  1
  C  317  1  0.54452550  0.40712700  0.14949200  1
  C  318  1  0.50767300  0.44576200  0.15023700  1
  C  319  1  0.44731200  0.52221350  0.12018150  1
  C  320  1  0.39334250  0.53078500  0.14069100  1
  C  321  1  0.40184800  0.53236600  0.20563400  1
  C  322  1  0.45576350  0.52449050  0.18576750  1
  C  323  1  0.37941700  0.53641850  0.24706850  1
  C  324  1  0.41004150  0.53123250  0.26884250  1
  C  325  1  0.46413800  0.52217450  0.24987650  1
  C  326  1  0.48589950  0.51997100  0.20831300  1
  C  327  1  0.46856200  0.51840250  0.07851450  1
  C  328  1  0.43784350  0.52344550  0.05659350  1
  C  329  1  0.38418800  0.53163000  0.07785800  1
  C  330  1  0.36243650  0.53501900  0.11916900  1
  C  343  1  0.48149900  0.51937950  0.14155550  1
  C  344  1  0.36815300  0.53623500  0.18418100  1
  C  347  1  0.59433150  0.50473450  0.09868250  1
  C  350  1  0.49432300  0.51584950  0.27186550  1
  C  351  1  0.52850050  0.37700400  0.17003500  1
  C  352  1  0.46097650  0.52170950  0.01551250  1
  C  356  1  0.44151400  0.66310600  0.12082800  1
  C  358  1  0.13835250  0.69055400  0.69064000  1
  C  359  1  0.16584750  0.69725600  0.71005400  1
  C  360  1  0.20733600  0.62345050  0.72015250  1
  C  361  1  0.18203150  0.61624300  0.69914400  1
  C  362  1  0.19001850  0.57678550  0.69401950  1
  C  363  1  0.22208500  0.54421200  0.70927300  1
  C  364  1  0.24668950  0.55215500  0.73030400  1
  C  365  1  0.23964000  0.59106600  0.73546400  1
  C  366  1  0.16089050  0.73627300  0.71303500  1
  C  367  1  0.13103300  0.76800000  0.69566000  1
  C  368  1  0.10413400  0.76176000  0.67559900  1
  C  369  1  0.10671300  0.72311700  0.67481600  1
  C  370  1  0.09270600  0.64666700  0.70489700  1
  C  371  1  0.06783800  0.63809600  0.68438000  1
  C  372  1  0.14292950  0.63648800  0.61945100  1
  C  373  1  0.16907800  0.64437250  0.63932550  1
  C  374  1  0.16602350  0.63241650  0.57801850  1
  C  375  1  0.21322700  0.63763400  0.55624800  1
  C  376  1  0.23926050  0.64671800  0.57522100  1
  C  377  1  0.21724900  0.64889950  0.61678450  1
  C  378  1  0.06843500  0.65049250  0.74656150  1
  C  379  1  0.02082600  0.64544650  0.76847250  1
  C  380  1  0.99663200  0.63727550  0.74719650  1
  C  381  1  0.01962350  0.63387550  0.70588650  1
  C  394  1  0.14544550  0.64949850  0.68353550  1
  C  395  1  0.09163200  0.63262900  0.64089200  1
  C  398  1  0.20065100  0.66417500  0.72646700  1
  C  401  1  0.28507650  0.65309600  0.55322700  1
  C  402  1  0.07860650  0.79187700  0.65501900  1
  C  403  1  0.00108000  0.64721650  0.80955150  1
  C  407  1  0.22841350  0.50578650  0.70434450  1
  C  817  1  0.97456150  0.69170000  0.27734800  1
  C  818  1  0.99165700  0.72225500  0.25767200  1
  C  819  1  0.01779700  0.73719750  0.27176050  1
  C  820  1  0.02774550  0.72098500  0.30624700  1
  C  821  1  0.01063600  0.69033900  0.32600700  1
  C  823  1  0.98456650  0.67590900  0.31177900  1
  C  831  1  0.94647900  0.47728450  0.54753350  1
  C  832  1  0.97436750  0.44675250  0.56727450  1
  C  833  1  0.02954000  0.43177650  0.55324450  1
  C  834  1  0.05785650  0.44793200  0.51874900  1
  C  835  1  0.02994700  0.47854350  0.49891450  1
  C  837  1  0.97521400  0.49301050  0.51308950  1
  C  845  1  0.41838700  0.71966900  0.51965900  1
  C  846  1  0.37068600  0.73941750  0.55014750  1
  C  847  1  0.32959050  0.72533500  0.56511800  1
  C  848  1  0.33589050  0.69077850  0.54900350  1
  C  849  1  0.38370700  0.67093150  0.51844350  1
  C  851  1  0.42421450  0.68515850  0.50397750  1
  C  859  1  0.66072500  0.44942750  0.30531950  1
  C  860  1  0.66335750  0.42974350  0.27474850  1
  C  861  1  0.62313750  0.44380300  0.25980200  1
  C  862  1  0.57865150  0.47826250  0.27603350  1
  C  863  1  0.57595450  0.49803700  0.30668900  1
  C  865  1  0.61624550  0.48383650  0.32112250  1
  C  929  1  0.90136350  0.63918000  0.95533600  1
  C  930  1  0.94998950  0.61011050  0.93416550  1
  C  931  1  0.97107050  0.60906650  0.89246150  1
  C  932  1  0.94278950  0.63779550  0.87144750  1
  C  933  1  0.89327450  0.66578650  0.89251650  1
  C  935  1  0.87279100  0.66642150  0.93399250  1
  C  943  1  0.49897850  0.52984600  0.86971100  1
  C  944  1  0.49751150  0.55882800  0.89089400  1
  C  945  1  0.47587200  0.55983650  0.93259950  1
  C  946  1  0.45519850  0.53115350  0.95360450  1
  C  947  1  0.45462550  0.50324200  0.93252300  1
  C  949  1  0.47618750  0.50266050  0.89104450  1
  C  957  1  0.54409400  0.04168750  0.46713050  1
  C  958  1  0.52465650  0.06286900  0.43801500  1
  C  959  1  0.50460300  0.10457000  0.43700800  1
  C  960  1  0.50400750  0.12556900  0.46582800  1
  C  961  1  0.52538450  0.10449050  0.49388350  1
  C  963  1  0.54527950  0.06301600  0.49446800  1
  C  971  1  0.05582300  0.12735200  0.35770000  1
  C  972  1  0.02840050  0.10618750  0.38680750  1
  C  973  1  0.04902100  0.06448450  0.38783150  1
  C  974  1  0.09826350  0.04346800  0.35903000  1
  C  975  1  0.12666700  0.06453350  0.33098650  1
  C  977  1  0.10569850  0.10600650  0.33039350  1
  C  1041  1  0.97492550  0.46609800  0.16315200  1
  C  1042  1  0.93341000  0.47026300  0.19986300  1
  C  1043  1  0.91605300  0.43911000  0.21661600  1
  C  1044  1  0.93990500  0.40331250  0.19558050  1
  C  1045  1  0.98119300  0.39915000  0.15850400  1
  C  1047  1  0.99864500  0.43024600  0.14245800  1
  C  1055  1  0.60715250  0.70303900  0.66166800  1
  C  1056  1  0.60640700  0.69882900  0.62501800  1
  C  1057  1  0.57462350  0.72997100  0.60827800  1
  C  1058  1  0.54172450  0.76579950  0.62927050  1
  C  1059  1  0.54189050  0.77001100  0.66628500  1
  C  1061  1  0.57441050  0.73892450  0.68231750  1
  C  1069  1  0.64356700  0.83389250  0.29390450  1
  C  1070  1  0.68091900  0.79720350  0.29808750  1
  C  1071  1  0.72944950  0.78045500  0.26694300  1
  C  1072  1  0.74144300  0.80150000  0.23115700  1
  C  1073  1  0.70431650  0.83855800  0.22698100  1
  C  1075  1  0.65575100  0.85460350  0.25807150  1
  C  1083  1  0.77441000  0.33527350  0.53093750  1
  C  1084  1  0.77928700  0.37195300  0.52673300  1
  C  1085  1  0.77991350  0.38871150  0.55787150  1
  C  1086  1  0.77710400  0.36769600  0.59367500  1
  C  1087  1  0.77283950  0.33064100  0.59786500  1
  C  1089  1  0.77139650  0.31459350  0.56678950  1
  C  1097  1  0.02975950  0.83522000  0.53049100  1
  C  1098  1  0.07069800  0.79815900  0.52620000  1
  C  1099  1  0.08812950  0.78096800  0.55723800  1
  C  1100  1  0.06493450  0.80189750  0.59303150  1
  C  1101  1  0.02425300  0.83931400  0.59730900  1
  C  1103  1  0.00673400  0.85580650  0.56633550  1
  C  1111  1  0.39846400  0.33364900  0.29460200  1
  C  1112  1  0.39796850  0.37075100  0.29885000  1
  C  1113  1  0.42922550  0.38795000  0.26778700  1
  C  1114  1  0.46282000  0.36698550  0.23202050  1
  C  1115  1  0.46390800  0.32953250  0.22778350  1
  C  1117  1  0.43193500  0.31302750  0.25878250  1
  C  1125  1  0.35233350  0.70240050  0.16171150  1
  C  1126  1  0.31558750  0.69806450  0.19870650  1
  C  1127  1  0.26710450  0.72910700  0.21589900  1
  C  1128  1  0.25455700  0.76492300  0.19500500  1
  C  1129  1  0.29105900  0.76924200  0.15764900  1
  C  1131  1  0.33956100  0.73826350  0.14115750  1
  C  1139  1  0.21955300  0.46645500  0.66342300  1
  C  1140  1  0.21566200  0.47073450  0.62636850  1
  C  1141  1  0.21547450  0.43967100  0.60917000  1
  C  1142  1  0.21773800  0.40388650  0.63010750  1
  C  1143  1  0.22100000  0.39962500  0.66752300  1
  C  1145  1  0.22198800  0.43062000  0.68401900  1
  H  25  1  0.81725350  0.62494650  0.06564650  1
  H  26  1  0.78400150  0.62260600  0.13602700  1
  H  27  1  0.79987500  0.62676550  0.26432050  1
  H  28  1  0.84210800  0.63753200  0.30093500  1
  H  29  1  0.95436000  0.65712500  0.19555200  1
  H  30  1  0.93833200  0.65264700  0.06548900  1
  H  31  1  0.94087600  0.57147150  0.14917750  1
  H  32  1  0.10250850  0.53141450  0.08491550  1
  H  33  1  0.09716850  0.59806700  0.07542200  1
  H  34  1  0.83428050  0.71695350  0.16571150  1
  H  35  1  0.99114800  0.74406850  0.09707150  1
  H  36  1  0.90953900  0.79721250  0.12600450  1
  H  39  1  0.78178200  0.65273700  0.19834900  1
  H  40  1  0.82080800  0.60175700  0.19341000  1
  H  42  1  0.03893400  0.66880500  0.11195900  1
  H  43  1  0.03003900  0.67013250  0.06752050  1
  H  47  1  0.94251850  0.63334500  0.00563100  1
  H  48  1  0.92150650  0.64334800  0.29985900  1
  H  49  1  0.80821800  0.81911750  0.15841350  1
  H  51  1  0.05528000  0.48487850  0.10587450  1
  H  76  1  0.51080650  0.54409950  0.75944350  1
  H  77  1  0.54550300  0.54648900  0.68906100  1
  H  78  1  0.69375100  0.54237800  0.56065000  1
  H  79  1  0.78338600  0.53156350  0.52396150  1
  H  80  1  0.80995700  0.51200450  0.62927150  1
  H  81  1  0.65950500  0.51646750  0.75942050  1
  H  82  1  0.66442150  0.59768150  0.67573850  1
  H  83  1  0.72200550  0.63776400  0.73973700  1
  H  84  1  0.77384450  0.57111200  0.74921400  1
  H  85  1  0.71985800  0.45219100  0.65922700  1
  H  86  1  0.83546900  0.42510950  0.72758950  1
  H  87  1  0.83591750  0.37196450  0.69868150  1
  H  90  1  0.63567850  0.51641650  0.62667850  1
  H  91  1  0.61880350  0.56739400  0.63160600  1
  H  93  1  0.82279050  0.50037550  0.71271750  1
  H  94  1  0.77084600  0.49903500  0.75721400  1
  H  98  1  0.58462850  0.53561500  0.81935000  1
  H  99  1  0.86764150  0.52563650  0.52493750  1
  H  100  1  0.78869000  0.35006650  0.66642450  1
  H  102  1  0.64913450  0.68430050  0.71885450  1
  H  127  1  0.64250500  0.93139000  0.45271100  1
  H  128  1  0.67808450  0.86101650  0.45034950  1
  H  129  1  0.65801250  0.73274200  0.45451600  1
  H  130  1  0.60499950  0.69612500  0.46532100  1
  H  131  1  0.47314750  0.80149250  0.48499150  1
  H  132  1  0.49369650  0.93154750  0.48049850  1
  H  133  1  0.57228500  0.84787650  0.39928550  1
  H  134  1  0.45068800  0.91218400  0.35929700  1
  H  135  1  0.38939300  0.92167100  0.42597200  1
  H  136  1  0.53344650  0.83126500  0.54475800  1
  H  137  1  0.34945850  0.89998850  0.57196750  1
  H  138  1  0.37793400  0.87100050  0.62508550  1
  H  141  1  0.65017100  0.79869550  0.48048150  1
  H  142  1  0.66208650  0.80365350  0.42950650  1
  H  144  1  0.37689400  0.88512600  0.49669600  1
  H  145  1  0.38450450  0.92954400  0.49803400  1
  H  149  1  0.50888600  0.99139050  0.46110350  1
  H  150  1  0.51974550  0.69722100  0.47115100  1
  H  151  1  0.45759000  0.83867950  0.64688050  1
  H  153  1  0.54445000  0.89119900  0.31272000  1
  H  178  1  0.02965150  0.23763400  0.37208000  1
  H  179  1  0.99256300  0.30801600  0.37442400  1
  H  180  1  0.84841300  0.43635600  0.37030600  1
  H  181  1  0.76957150  0.47300200  0.35953800  1
  H  182  1  0.76265350  0.36766750  0.33991950  1
  H  183  1  0.90869200  0.23757050  0.34437550  1
  H  184  1  0.82251450  0.32123350  0.42556650  1
  H  185  1  0.72502700  0.25707750  0.46561950  1
  H  186  1  0.73985600  0.24760950  0.39895650  1
  H  187  1  0.91258650  0.33779300  0.28008000  1
  H  188  1  0.82425150  0.26928450  0.25294450  1
  H  189  1  0.87692800  0.29822900  0.19980800  1
  H  192  1  0.93248300  0.37036050  0.34431250  1
  H  193  1  0.89837250  0.36542500  0.39529600  1
  H  195  1  0.76159450  0.28414250  0.32822550  1
  H  196  1  0.81492150  0.23968700  0.32687000  1
  H  200  1  0.96427400  0.17771350  0.36378750  1
  H  201  1  0.69124350  0.47197700  0.35366900  1
  H  202  1  0.94591850  0.33058450  0.17791850  1
  H  204  1  0.75132000  0.27800100  0.51216500  1
  H  229  1  0.18869450  0.93365350  0.36364350  1
  H  230  1  0.21982700  0.86358150  0.36936950  1
  H  231  1  0.20187500  0.73518300  0.37020100  1
  H  232  1  0.15876850  0.69814600  0.36134800  1
  H  233  1  0.04551000  0.80300650  0.34218550  1
  H  234  1  0.06411450  0.93328400  0.34098600  1
  H  235  1  0.06244650  0.85119550  0.42502150  1
  H  236  1  0.90035600  0.91371100  0.46749500  1
  H  237  1  0.90355700  0.92256100  0.40139500  1
  H  238  1  0.16480100  0.83235150  0.27890350  1
  H  239  1  0.00500950  0.89838100  0.25539400  1
  H  240  1  0.08532050  0.86858700  0.20147400  1
  H  243  1  0.21995150  0.80068800  0.34253700  1
  H  244  1  0.18163500  0.80679400  0.39362200  1
  H  246  1  0.95986550  0.88523650  0.33134650  1
  H  247  1  0.96874150  0.93002350  0.32807750  1
  H  251  1  0.07024850  0.99418400  0.34292900  1
  H  252  1  0.07708300  0.69950050  0.35765350  1
  H  253  1  0.18715000  0.83714250  0.17765250  1
  H  255  1  0.94983600  0.89380550  0.51255450  1
  H  280  1  0.48911550  0.23540550  0.46125050  1
  H  281  1  0.45580950  0.30547800  0.45556500  1
  H  282  1  0.31016200  0.43380300  0.45485300  1
  H  283  1  0.22114650  0.47079400  0.46372600  1
  H  284  1  0.19366050  0.36589000  0.48298500  1
  H  285  1  0.34150100  0.23566400  0.48408300  1
  H  286  1  0.34161550  0.31776150  0.40008550  1
  H  287  1  0.28464450  0.25507600  0.35771100  1
  H  288  1  0.23061950  0.24622450  0.42383050  1
  H  289  1  0.27913150  0.33656900  0.54618300  1
  H  290  1  0.16195900  0.27040200  0.56982400  1
  H  291  1  0.15862400  0.30016850  0.62371650  1
  H  294  1  0.36615300  0.36833000  0.48248300  1
  H  295  1  0.38499050  0.36222200  0.43140700  1
  H  297  1  0.17951750  0.28356900  0.49388300  1
  H  298  1  0.22998200  0.23881350  0.49710950  1
  H  302  1  0.41056100  0.17479150  0.48204650  1
  H  303  1  0.13719400  0.46933800  0.46734700  1
  H  304  1  0.20501350  0.33172600  0.64749600  1
  H  306  1  0.35920850  0.27504300  0.31260200  1
  H  331  1  0.36015550  0.53566800  0.06344300  1
  H  332  1  0.32331100  0.54141250  0.13352250  1
  H  333  1  0.34050150  0.54219700  0.26189700  1
  H  334  1  0.39248800  0.53333500  0.29890900  1
  H  335  1  0.52492300  0.51410200  0.19401000  1
  H  336  1  0.50745800  0.51290250  0.06376050  1
  H  337  1  0.42514000  0.59694100  0.14584500  1
  H  338  1  0.54480150  0.63934850  0.08321650  1
  H  339  1  0.60769100  0.57324450  0.07437650  1
  H  340  1  0.46884050  0.45085950  0.16467250  1
  H  341  1  0.65219050  0.42726300  0.09858500  1
  H  342  1  0.62575650  0.37336900  0.12836600  1
  H  345  1  0.35003700  0.51454900  0.19640300  1
  H  346  1  0.33731650  0.56562000  0.19029400  1
  H  348  1  0.62142500  0.50321450  0.11172850  1
  H  349  1  0.61578350  0.49994350  0.06695750  1
  H  353  1  0.49938300  0.51474250  0.00287150  1
  H  354  1  0.47787900  0.52964450  0.29751050  1
  H  355  1  0.54782600  0.34956750  0.15990350  1
  H  357  1  0.45028900  0.68444750  0.10320150  1
  H  382  1  0.96220550  0.63325200  0.76160200  1
  H  383  1  0.00125800  0.62748550  0.69152650  1
  H  384  1  0.14769600  0.62668750  0.56317950  1
  H  385  1  0.22782850  0.63557900  0.52617800  1
  H  386  1  0.23606850  0.65480150  0.63108650  1
  H  387  1  0.08705250  0.65599700  0.76132800  1
  H  388  1  0.17096400  0.57192950  0.67925850  1
  H  389  1  0.27025400  0.52956950  0.74198550  1
  H  390  1  0.25817250  0.59568250  0.75081450  1
  H  391  1  0.08743750  0.71801100  0.66036800  1
  H  392  1  0.18092850  0.74164150  0.72656350  1
  H  393  1  0.13043100  0.79552450  0.69675650  1
  H  396  1  0.06407350  0.65431100  0.62865400  1
  H  397  1  0.09629400  0.60324200  0.63478600  1
  H  399  1  0.23926900  0.66570650  0.71344550  1
  H  400  1  0.18553700  0.66896650  0.75819450  1
  H  404  1  0.01985600  0.65419450  0.82220050  1
  H  405  1  0.30819000  0.63920150  0.52764450  1
  H  406  1  0.06006400  0.81927000  0.66527800  1
  H  408  1  0.24086550  0.48445600  0.72199100  1
  H  822  1  0.98483700  0.73415700  0.23266600  1
  H  824  1  0.01657800  0.67838450  0.35123650  1
  H  825  1  0.97305350  0.65365950  0.32689150  1
  H  836  1  0.95437300  0.43490150  0.59229450  1
  H  838  1  0.04922900  0.49047250  0.47369150  1
  H  839  1  0.95662150  0.51525150  0.49794050  1
  H  850  1  0.36557750  0.76447450  0.56198050  1
  H  852  1  0.38974600  0.64565550  0.50655150  1
  H  853  1  0.45801550  0.66998550  0.48178650  1
  H  864  1  0.69522000  0.40475650  0.26283450  1
  H  866  1  0.54473850  0.52324100  0.31866500  1
  H  867  1  0.61260400  0.49894500  0.34339300  1
  H  934  1  0.97055450  0.58931750  0.94918450  1
  H  936  1  0.87221300  0.68643200  0.87771700  1
  H  937  1  0.83722100  0.68751050  0.94855650  1
  H  948  1  0.51237400  0.57959050  0.87588450  1
  H  950  1  0.43928550  0.48265550  0.94731250  1
  H  951  1  0.47616500  0.48163500  0.87647400  1
  H  962  1  0.52498800  0.04786050  0.41715950  1
  H  964  1  0.52573700  0.11927650  0.51457350  1
  H  965  1  0.55968050  0.04844500  0.51558800  1
  H  976  1  0.99285250  0.12120650  0.40765150  1
  H  978  1  0.16250550  0.04973200  0.31030200  1
  H  979  1  0.12666900  0.12056150  0.30925650  1
  H  1046  1  0.91571350  0.49617950  0.21513550  1
  H  1048  1  0.99922450  0.37331700  0.14318500  1
  H  1049  1  0.02842050  0.42666600  0.11552400  1
  H  1060  1  0.62984650  0.67289000  0.60977300  1
  H  1062  1  0.51880050  0.79585900  0.68158700  1
  H  1063  1  0.57373200  0.74253250  0.70921750  1
  H  1074  1  0.67266150  0.78192100  0.32399300  1
  H  1076  1  0.71215950  0.85388900  0.20115700  1
  H  1077  1  0.62957150  0.88153650  0.25449350  1
  H  1088  1  0.78168650  0.38722150  0.50081850  1
  H  1090  1  0.77014800  0.31532550  0.62370050  1
  H  1091  1  0.76855000  0.28766550  0.57038350  1
  H  1102  1  0.08785950  0.78294550  0.50029550  1
  H  1104  1  0.00662250  0.85453700  0.62317200  1
  H  1105  1  0.97734200  0.88294950  0.57003950  1
  H  1116  1  0.37395750  0.38599000  0.32473400  1
  H  1118  1  0.48743950  0.31427250  0.20194750  1
  H  1119  1  0.43346100  0.28584900  0.25511700  1
  H  1130  1  0.32430100  0.67215100  0.21390300  1
  H  1132  1  0.28286700  0.79512250  0.14245550  1
  H  1133  1  0.36531400  0.74199500  0.11405300  1
  H  1144  1  0.21374000  0.49662300  0.61114300  1
  H  1146  1  0.22340250  0.37377150  0.68275150  1
  H  1147  1  0.22421900  0.42693300  0.71116600  1
  N  826  1  0.03459000  0.76802200  0.25195400  1
  N  829  1  0.95016350  0.67963850  0.26188950  1
  N  830  1  0.05200950  0.73604050  0.31890650  1
  N  840  1  0.05726150  0.40098600  0.57312800  1
  N  843  1  0.89455200  0.48940950  0.56296550  1
  N  844  1  0.10983650  0.43288000  0.50617900  1
  N  854  1  0.28192150  0.74522000  0.59587200  1
  N  857  1  0.45484900  0.73513250  0.50756350  1
  N  858  1  0.29654150  0.67814150  0.56406850  1
  N  868  1  0.62620850  0.42398850  0.22895750  1
  N  871  1  0.70056250  0.43398350  0.31740150  1
  N  872  1  0.54172700  0.49088200  0.26098200  1
  N  938  1  0.01958950  0.57990250  0.87122550  1
  N  941  1  0.88121350  0.64122950  0.99462550  1
  N  942  1  0.96142900  0.63862150  0.83218850  1
  N  952  1  0.47411200  0.58893000  0.95384400  1
  N  955  1  0.52011150  0.52784350  0.83041550  1
  N  956  1  0.43538950  0.53030600  0.99286600  1
  N  966  1  0.48537850  0.12581550  0.40779250  1
  N  969  1  0.56219850  0.00240150  0.46914850  1
  N  970  1  0.48451750  0.16482400  0.46669600  1
  N  980  1  0.02178350  0.04325900  0.41705000  1
  N  983  1  0.03668800  0.16664150  0.35566650  1
  N  984  1  0.11890400  0.00421050  0.35819450  1
  N  1050  1  0.87549850  0.44300350  0.25419150  1
  N  1053  1  0.98717550  0.49746900  0.15014300  1
  N  1054  1  0.92308300  0.37472100  0.21307500  1
  N  1064  1  0.57542750  0.72602950  0.57075950  1
  N  1067  1  0.63777050  0.67167750  0.67467550  1
  N  1068  1  0.51376250  0.79436900  0.61179500  1
  N  1078  1  0.76609800  0.74288350  0.27084050  1
  N  1081  1  0.59995150  0.84691750  0.32528750  1
  N  1082  1  0.78685600  0.78398850  0.20256250  1
  N  1092  1  0.78292050  0.42627400  0.55395300  1
  N  1095  1  0.77517600  0.32225150  0.49956950  1
  N  1096  1  0.77644700  0.38519750  0.62225250  1
  N  1106  1  0.12809350  0.74307600  0.55326500  1
  N  1109  1  0.01713550  0.84856600  0.49932100  1
  N  1110  1  0.08150600  0.78396000  0.62162100  1
  N  1120  1  0.42723300  0.42588150  0.27171250  1
  N  1123  1  0.36802900  0.32030150  0.32579050  1
  N  1124  1  0.49001250  0.38493050  0.20340350  1
  N  1134  1  0.23104900  0.72510350  0.25375150  1
  N  1137  1  0.39613450  0.67122750  0.14836950  1
  N  1138  1  0.20943000  0.79353800  0.21298000  1
  N  1148  1  0.21343950  0.44361900  0.57127100  1
  N  1151  1  0.21879250  0.49764200  0.67676800  1
  N  1152  1  0.21920150  0.37526500  0.61215000  1
  O  827  1  0.99690350  0.79882550  0.25079750  1
  O  828  1  0.06670950  0.75831350  0.21737550  1
  O  841  1  0.04919100  0.37018800  0.57432100  1
  O  842  1  0.04501050  0.41075700  0.60769900  1
  O  855  1  0.28870700  0.74650850  0.62668650  1
  O  856  1  0.25956150  0.77975200  0.58604800  1
  O  869  1  0.66505350  0.42286350  0.19815650  1
  O  870  1  0.62872350  0.38940150  0.23864650  1
  O  939  1  0.05578450  0.58148950  0.87830950  1
  O  940  1  0.01873150  0.54598100  0.87950100  1
  O  953  1  0.51902800  0.58725500  0.94673800  1
  O  954  1  0.44767050  0.62289050  0.94560350  1
  O  967  1  0.44765850  0.11871900  0.40925700  1
  O  968  1  0.52026000  0.11756800  0.37390000  1
  O  981  1  0.97843650  0.05036350  0.41557350  1
  O  982  1  0.01449450  0.05151700  0.45094200  1
  O  1051  1  0.88755400  0.44985350  0.28012550  1
  O  1052  1  0.83370750  0.47025600  0.25460200  1
  O  1065  1  0.62025100  0.71912800  0.54475900  1
  O  1066  1  0.56122050  0.69879150  0.57045950  1
  O  1079  1  0.74719800  0.71694700  0.27765400  1
  O  1080  1  0.78058850  0.74246900  0.29811700  1
  O  1093  1  0.74492600  0.45221300  0.54710800  1
  O  1094  1  0.82431000  0.42665750  0.52668150  1
  O  1107  1  0.11524950  0.71757200  0.54652500  1
  O  1108  1  0.17003550  0.74222600  0.52592900  1
  O  1121  1  0.38211600  0.45133550  0.27842950  1
  O  1122  1  0.44093700  0.42681850  0.29904450  1
  O  1135  1  0.25057850  0.71829350  0.27929750  1
  O  1136  1  0.21643800  0.69780050  0.25451050  1
  O  1149  1  0.25179150  0.45037200  0.54577300  1
  O  1150  1  0.17234650  0.47093250  0.57040850  1
