# generated using pymatgen
data_H11C20N4O5
_symmetry_space_group_name_H-M   'P 1'
_cell_length_a   9.99020000
_cell_length_b   38.36530000
_cell_length_c   38.36530000
_cell_angle_alpha   120.00000000
_cell_angle_beta   90.00000000
_cell_angle_gamma   90.00000000
_symmetry_Int_Tables_number   1
_chemical_formula_structural   H11C20N4O5
_chemical_formula_sum   'H66 C120 N24 O30'
_cell_volume   12734.50333569
_cell_formula_units_Z   6
loop_
 _symmetry_equiv_pos_site_id
 _symmetry_equiv_pos_as_xyz
  1  'x, y, z'
loop_
 _atom_site_type_symbol
 _atom_site_label
 _atom_site_symmetry_multiplicity
 _atom_site_fract_x
 _atom_site_fract_y
 _atom_site_fract_z
 _atom_site_occupancy
  C  1  1  0.00480500  0.01994400  0.50481900  1
  C  2  1  0.95025100  0.04924000  0.54224400  1
  C  3  1  0.94947000  0.09045700  0.55412200  1
  C  4  1  0.99940000  0.10253000  0.52746800  1
  C  5  1  0.05182000  0.07417900  0.48948300  1
  C  6  1  0.05556500  0.03285100  0.47844500  1
  C  9  1  0.00406400  0.97836300  0.49411800  1
  C  10  1  0.05313100  0.96534800  0.52057900  1
  C  11  1  0.04775600  0.92404700  0.50955600  1
  C  12  1  0.99544400  0.89581200  0.47151200  1
  C  13  1  0.94731800  0.90797800  0.44474700  1
  C  14  1  0.94967900  0.94918800  0.45660600  1
  C  21  1  0.90228500  0.87928200  0.40726200  1
  C  22  1  0.09716400  0.08825500  0.46453200  1
  C  23  1  0.90395500  0.11922300  0.59149900  1
  C  24  1  0.09104900  0.90993700  0.53462400  1
  C  29  1  0.00349200  0.48431100  0.97926800  1
  C  30  1  0.94882800  0.49271100  0.95016700  1
  C  31  1  0.94590700  0.46337200  0.90895700  1
  C  32  1  0.99370300  0.42439100  0.89672100  1
  C  33  1  0.04621500  0.41452100  0.92488800  1
  C  34  1  0.05225000  0.44478900  0.96618100  1
  C  37  1  0.00493500  0.51518800  0.02084800  1
  C  38  1  0.05622400  0.55440000  0.03369400  1
  C  39  1  0.05341200  0.58467500  0.07503600  1
  C  40  1  0.00152000  0.57506100  0.10346300  1
  C  41  1  0.95094200  0.53641500  0.09144400  1
  C  42  1  0.95076200  0.50710500  0.05021800  1
  C  49  1  0.90591800  0.52784700  0.12028100  1
  C  50  1  0.08942600  0.37535600  0.91075500  1
  C  51  1  0.90071200  0.47223200  0.88032500  1
  C  52  1  0.09974700  0.62361000  0.08908400  1
  C  57  1  0.00475400  0.49376100  0.51561500  1
  C  58  1  0.95024000  0.45634400  0.50753200  1
  C  59  1  0.94993000  0.44445200  0.53686300  1
  C  60  1  0.00030000  0.47109100  0.57553700  1
  C  61  1  0.05246100  0.50910400  0.58515000  1
  C  62  1  0.05586400  0.52012400  0.55484800  1
  C  65  1  0.00380200  0.50443500  0.48471800  1
  C  66  1  0.05270100  0.47795900  0.44522500  1
  C  67  1  0.04718500  0.48897000  0.41493900  1
  C  68  1  0.99490300  0.52702200  0.42476000  1
  C  69  1  0.94691700  0.55379200  0.46370700  1
  C  70  1  0.94940900  0.54194900  0.49306800  1
  C  77  1  0.90171300  0.59125300  0.47249400  1
  C  78  1  0.09874500  0.53399600  0.62404500  1
  C  79  1  0.90479800  0.40704100  0.52827300  1
  C  80  1  0.09041700  0.46389800  0.37574800  1
  C  85  1  0.99771800  0.68337700  0.13819000  1
  C  86  1  0.10912600  0.70492400  0.16171200  1
  C  88  1  0.96795800  0.75195800  0.21518300  1
  C  89  1  0.85168600  0.73146300  0.19287000  1
  C  90  1  0.86905300  0.69743400  0.15414300  1
  C  92  1  0.96607500  0.78521300  0.25506300  1
  C  93  1  0.04199100  0.82107100  0.26837800  1
  C  94  1  0.03790700  0.85054300  0.30971400  1
  C  95  1  0.96045000  0.84499000  0.33728700  1
  C  96  1  0.88705800  0.80885100  0.32222200  1
  C  101  1  0.11661500  0.82939900  0.24282200  1
  C  102  1  0.72242800  0.74353500  0.20647400  1
  C  111  1  0.99143100  0.45371300  0.31572800  1
  C  112  1  0.10402200  0.45610000  0.29481900  1
  C  114  1  0.96547600  0.46248300  0.24726200  1
  C  115  1  0.84808100  0.46022700  0.26708500  1
  C  116  1  0.86356700  0.45537500  0.30107700  1
  C  118  1  0.96532600  0.46928600  0.21411900  1
  C  119  1  0.04306000  0.44703800  0.17859800  1
  C  120  1  0.04038000  0.45903300  0.14921500  1
  C  121  1  0.96256300  0.49201500  0.15454300  1
  C  122  1  0.88719700  0.51276500  0.19033000  1
  C  127  1  0.11844100  0.41335900  0.17057400  1
  C  128  1  0.71949500  0.46148100  0.25440100  1
  C  137  1  0.99159000  0.86033900  0.54509100  1
  C  138  1  0.10393000  0.83699700  0.54279700  1
  C  140  1  0.96478500  0.78327000  0.53667800  1
  C  141  1  0.84764000  0.80540500  0.53884000  1
  C  142  1  0.86355400  0.84416100  0.54350800  1
  C  144  1  0.96417400  0.74339800  0.53007900  1
  C  145  1  0.04191100  0.73017000  0.55236300  1
  C  146  1  0.03867600  0.68884400  0.54056300  1
  C  147  1  0.96027200  0.66119400  0.50773900  1
  C  148  1  0.88520600  0.67616700  0.48687800  1
  C  153  1  0.11756500  0.75582700  0.58592600  1
  C  154  1  0.71889200  0.79160900  0.53766700  1
  C  163  1  0.99031000  0.31530200  0.86085600  1
  C  164  1  0.10286100  0.29449900  0.83746800  1
  C  166  1  0.96420600  0.24677500  0.78367900  1
  C  167  1  0.84682800  0.26647900  0.80586600  1
  C  168  1  0.86242500  0.30050600  0.84467600  1
  C  170  1  0.96392800  0.21353000  0.74379500  1
  C  171  1  0.04179900  0.17805100  0.73061500  1
  C  172  1  0.03899800  0.14855500  0.68927600  1
  C  173  1  0.96095100  0.15373400  0.66156700  1
  C  174  1  0.88558700  0.18951400  0.67651000  1
  C  179  1  0.11722400  0.17016400  0.75632600  1
  C  180  1  0.71797200  0.25377000  0.79211900  1
  C  189  1  0.99672700  0.54464300  0.68386900  1
  C  190  1  0.10820700  0.54260400  0.70535300  1
  C  192  1  0.96719700  0.53637800  0.75254300  1
  C  193  1  0.85085300  0.53825500  0.73210600  1
  C  194  1  0.86811100  0.54287500  0.69802800  1
  C  196  1  0.96538500  0.52983800  0.78585100  1
  C  197  1  0.04160000  0.55237400  0.82164900  1
  C  198  1  0.03743500  0.54061500  0.85120100  1
  C  199  1  0.95959100  0.50760600  0.84578500  1
  C  200  1  0.88594900  0.48652600  0.80969200  1
  C  205  1  0.11657400  0.58615700  0.82984800  1
  C  206  1  0.72162700  0.53685600  0.74428100  1
  C  215  1  0.99636500  0.13756700  0.45400100  1
  C  216  1  0.10809600  0.16103500  0.45610700  1
  C  218  1  0.96764700  0.21474200  0.46279800  1
  C  219  1  0.85106300  0.19248400  0.46083600  1
  C  220  1  0.86791100  0.15366500  0.45595000  1
  C  222  1  0.96623700  0.25466600  0.46954600  1
  C  223  1  0.04253000  0.26800300  0.44709100  1
  C  224  1  0.03900900  0.30937300  0.45907800  1
  C  225  1  0.96174200  0.33695900  0.49225000  1
  C  226  1  0.88771600  0.32185600  0.51318000  1
  C  231  1  0.11730300  0.24242000  0.41323500  1
  C  232  1  0.72198600  0.20621700  0.46238300  1
  H  7  1  0.90970900  0.04053400  0.56123100  1
  H  8  1  0.99881800  0.13254300  0.53606700  1
  H  15  1  0.99367300  0.86581100  0.46294600  1
  H  16  1  0.91038100  0.95798100  0.43754300  1
  H  19  1  0.05519300  0.00156400  0.42127700  1
  H  20  1  0.05198000  0.99664700  0.57774900  1
  H  25  1  0.82828300  0.86111600  0.40536100  1
  H  26  1  0.16798300  0.07204200  0.44492100  1
  H  27  1  0.82971300  0.13724300  0.59322100  1
  H  28  1  0.16247900  0.92569000  0.55429200  1
  H  35  1  0.90980100  0.52060900  0.95901600  1
  H  36  1  0.99161100  0.40297900  0.86671600  1
  H  43  1  0.00170100  0.59644400  0.13348700  1
  H  44  1  0.90987000  0.47946600  0.04156500  1
  H  47  1  0.05143900  0.41895300  0.99751500  1
  H  48  1  0.05558300  0.58028200  0.00240900  1
  H  53  1  0.83153400  0.54407400  0.13828100  1
  H  54  1  0.15979600  0.37096300  0.92647000  1
  H  55  1  0.82643000  0.45603200  0.86225000  1
  H  56  1  0.16928600  0.62701700  0.07258400  1
  H  63  1  0.90950200  0.43735900  0.47987000  1
  H  64  1  0.00023000  0.46247100  0.59693500  1
  H  71  1  0.99301200  0.53558600  0.40332500  1
  H  72  1  0.91022100  0.56102200  0.52093500  1
  H  75  1  0.05568400  0.57728400  0.58063600  1
  H  76  1  0.05145000  0.42079000  0.41938200  1
  H  81  1  0.82674000  0.59311600  0.45649400  1
  H  82  1  0.16733500  0.55432400  0.62796800  1
  H  83  1  0.83175600  0.40525600  0.54487900  1
  H  84  1  0.16158900  0.44414900  0.37180100  1
  H  91  1  0.78689100  0.68214200  0.13743100  1
  H  98  1  0.09275100  0.87648200  0.32008400  1
  H  99  1  0.83205600  0.80247200  0.34075200  1
  H  100  1  0.20463000  0.69618500  0.15159400  1
  H  105  1  0.98214400  0.83037300  0.20897300  1
  H  108  1  0.61238000  0.78949500  0.22840800  1
  H  117  1  0.78055600  0.45367000  0.31590800  1
  H  124  1  0.09650300  0.44366200  0.12351400  1
  H  125  1  0.83152500  0.53750000  0.19651000  1
  H  126  1  0.19903400  0.45492300  0.30401400  1
  H  131  1  0.98279200  0.37816500  0.16832800  1
  H  134  1  0.61200800  0.43732200  0.20789200  1
  H  143  1  0.78072400  0.86074200  0.54516300  1
  H  150  1  0.09470200  0.67854800  0.55598200  1
  H  151  1  0.82932400  0.65759100  0.46220100  1
  H  152  1  0.19904500  0.84727000  0.54391100  1
  H  157  1  0.98322300  0.78946800  0.62113900  1
  H  160  1  0.61100900  0.76953100  0.56200900  1
  H  169  1  0.77945300  0.31528100  0.86127800  1
  H  176  1  0.09518300  0.12287400  0.67901400  1
  H  177  1  0.83004400  0.19564000  0.65789300  1
  H  178  1  0.19789200  0.30379900  0.84774300  1
  H  183  1  0.98257400  0.16850000  0.78983700  1
  H  186  1  0.61317900  0.20678200  0.76986200  1
  H  195  1  0.78589100  0.54434000  0.68278000  1
  H  202  1  0.09246100  0.55618400  0.87710200  1
  H  203  1  0.83068300  0.46169000  0.80341200  1
  H  204  1  0.20369000  0.54388000  0.69653400  1
  H  209  1  0.98244200  0.62107700  0.83083400  1
  H  212  1  0.61192800  0.56104400  0.79031400  1
  H  221  1  0.78551900  0.13698800  0.45442700  1
  H  228  1  0.09415000  0.31975400  0.44357200  1
  H  229  1  0.83250500  0.34036300  0.53804600  1
  H  230  1  0.20346400  0.15079900  0.45467600  1
  H  235  1  0.98126000  0.20927900  0.37839900  1
  H  238  1  0.61248900  0.22835900  0.43844100  1
  N  87  1  0.09020700  0.73757600  0.19857100  1
  N  97  1  0.89347400  0.78088400  0.28263400  1
  N  109  1  0.96974100  0.87265700  0.37602900  1
  N  110  1  0.00654500  0.65055900  0.10220300  1
  N  113  1  0.08692300  0.46045200  0.26218800  1
  N  123  1  0.89228500  0.50102000  0.21821800  1
  N  135  1  0.97264300  0.50313000  0.12692000  1
  N  136  1  0.99820600  0.45048700  0.34854100  1
  N  139  1  0.08641500  0.80009500  0.53861400  1
  N  149  1  0.89080800  0.71574700  0.49844000  1
  N  161  1  0.96985000  0.62248100  0.49676100  1
  N  162  1  0.99873800  0.89631000  0.54817500  1
  N  165  1  0.08569200  0.26182200  0.80051400  1
  N  175  1  0.89084400  0.21751600  0.71610000  1
  N  187  1  0.97097200  0.12602100  0.62285900  1
  N  188  1  0.99709600  0.34814000  0.89688200  1
  N  191  1  0.08939600  0.53847400  0.73805500  1
  N  201  1  0.89244500  0.49804300  0.78165000  1
  N  213  1  0.96873900  0.49662300  0.87352300  1
  N  214  1  0.00540400  0.54774600  0.65100900  1
  N  217  1  0.08967700  0.19798200  0.46048300  1
  N  227  1  0.89363400  0.28223600  0.50144600  1
  N  239  1  0.97117300  0.37570300  0.50334200  1
  N  240  1  0.00467200  0.10150400  0.45066300  1
  O  17  1  0.11553300  0.00551700  0.44322900  1
  O  18  1  0.11300200  0.99253100  0.55588200  1
  O  45  1  0.11250800  0.43662100  0.99328100  1
  O  46  1  0.11587300  0.56221100  0.00627000  1
  O  73  1  0.11595200  0.55530100  0.56265200  1
  O  74  1  0.11256900  0.44265200  0.43709300  1
  O  103  1  0.23595200  0.82156400  0.24071200  1
  O  104  1  0.06827600  0.82718900  0.21214600  1
  O  106  1  0.66441100  0.72568500  0.22106400  1
  O  107  1  0.68941300  0.77841000  0.21663900  1
  O  129  1  0.23774100  0.41896600  0.17840500  1
  O  130  1  0.06891800  0.38451600  0.17190400  1
  O  132  1  0.66043800  0.49375900  0.27207000  1
  O  133  1  0.68842900  0.43679000  0.21933200  1
  O  155  1  0.23712100  0.75789300  0.58048000  1
  O  156  1  0.06933200  0.78629300  0.61475200  1
  O  158  1  0.65980600  0.77693000  0.50539000  1
  O  159  1  0.68757400  0.78141100  0.56247600  1
  O  181  1  0.23674100  0.17775100  0.75850700  1
  O  182  1  0.06870600  0.17176600  0.78674300  1
  O  184  1  0.66264100  0.27019700  0.77564000  1
  O  185  1  0.68876500  0.21868100  0.78210400  1
  O  207  1  0.23583100  0.58030300  0.82193400  1
  O  208  1  0.06849700  0.61463500  0.82760200  1
  O  210  1  0.66331000  0.50446100  0.72651700  1
  O  211  1  0.68892400  0.56164100  0.77916500  1
  O  233  1  0.23693300  0.24035800  0.41854600  1
  O  234  1  0.06757500  0.21216800  0.38453200  1
  O  236  1  0.66386900  0.22077400  0.49480600  1
  O  237  1  0.68935500  0.21650800  0.43773900  1
