# generated using pymatgen
data_H8C14N5O4
_symmetry_space_group_name_H-M   'P 1'
_cell_length_a   15.67320000
_cell_length_b   15.67320000
_cell_length_c   62.69270000
_cell_angle_alpha   90.00000000
_cell_angle_beta   90.00000000
_cell_angle_gamma   90.00000000
_symmetry_Int_Tables_number   1
_chemical_formula_structural   H8C14N5O4
_chemical_formula_sum   'H64 C112 N40 O32'
_cell_volume   15400.41149050
_cell_formula_units_Z   8
loop_
 _symmetry_equiv_pos_site_id
 _symmetry_equiv_pos_as_xyz
  1  'x, y, z'
loop_
 _atom_site_type_symbol
 _atom_site_label
 _atom_site_symmetry_multiplicity
 _atom_site_fract_x
 _atom_site_fract_y
 _atom_site_fract_z
 _atom_site_occupancy
  C  2  1  0.07896800  0.02069900  0.67512800  1
  C  3  1  0.01729600  0.01598100  0.65867600  1
  C  5  1  0.01135600  0.03870100  0.88668400  1
  C  6  1  0.05388700  0.05053100  0.26290000  1
  C  7  1  0.03861900  0.04047500  0.24070400  1
  C  10  1  0.02137500  0.03434700  0.02728500  1
  C  11  1  0.07044600  0.04705000  0.99012600  1
  C  12  1  0.03595200  0.02755500  0.04933100  1
  C  13  1  0.02113300  0.07769500  0.51411700  1
  C  14  1  0.01249800  0.07155600  0.49165000  1
  C  16  1  0.03811400  0.00970900  0.63650600  1
  C  17  1  0.01048900  0.04820400  0.12145800  1
  C  18  1  0.01985700  0.01731100  0.90872300  1
  C  19  1  0.02131100  0.07813800  0.92536900  1
  C  22  1  0.01528000  0.02194200  0.79823200  1
  C  24  1  0.00112600  0.02702600  0.09940300  1
  C  33  1  0.97166400  0.05496700  0.76099800  1
  C  34  1  0.98228200  0.03932200  0.73883200  1
  C  38  1  0.08898700  0.04162700  0.01224300  1
  C  39  1  0.98592400  0.04537700  0.98213500  1
  C  40  1  0.91842200  0.03744500  0.99718100  1
  C  42  1  0.93698200  0.03167100  0.01926200  1
  C  47  1  0.96890200  0.05299600  0.96022500  1
  C  49  1  0.54801700  0.01769800  0.64794100  1
  C  50  1  0.45790200  0.01619800  0.64637800  1
  C  53  1  0.68868500  0.00934700  0.63013100  1
  C  55  1  0.41426700  0.00860000  0.37886900  1
  C  56  1  0.46469200  0.01320000  0.36007400  1
  C  57  1  0.55480100  0.01244200  0.36168600  1
  C  60  1  0.32396100  0.00893900  0.37794500  1
  C  62  1  0.19115500  0.01368600  0.64823800  1
  C  63  1  0.16720200  0.02170000  0.66996900  1
  C  131  1  0.02322400  0.94419800  0.17695400  1
  C  132  1  0.01855900  0.00592000  0.16051300  1
  C  137  1  0.01865100  0.16655900  0.92045000  1
  C  138  1  0.00946900  0.19120400  0.89875800  1
  C  140  1  0.00900300  0.97555000  0.86983600  1
  C  142  1  0.03764900  0.00578000  0.38854400  1
  C  143  1  0.01675600  0.00529600  0.41075400  1
  C  144  1  0.07803900  0.00492000  0.42738900  1
  C  147  1  0.02130500  0.00513600  0.30000800  1
  C  148  1  0.04157300  0.97886200  0.73102400  1
  C  149  1  0.08177100  0.94973600  0.76816600  1
  C  150  1  0.05203700  0.96497800  0.70914000  1
  C  152  1  0.01447700  0.00298000  0.52684300  1
  C  156  1  0.02420600  0.00419200  0.54897900  1
  C  157  1  0.01740000  0.42490300  0.13079400  1
  C  158  1  0.02617900  0.47519300  0.14952000  1
  C  159  1  0.02422000  0.56530300  0.14799600  1
  C  162  1  0.01888600  0.33459700  0.13166100  1
  C  217  1  0.00935300  0.20091600  0.10943400  1
  C  218  1  0.01510100  0.13761000  0.12550000  1
  C  219  1  0.01456500  0.98507000  0.13832100  1
  C  220  1  0.01475600  0.89569400  0.13405600  1
  C  221  1  0.01967000  0.83203200  0.15000200  1
  C  222  1  0.02567900  0.85599000  0.17177400  1
  C  230  1  0.00991500  0.93481800  0.83113500  1
  C  231  1  0.01267800  0.99645200  0.84766600  1
  C  234  1  0.02153400  0.00913100  0.77611300  1
  C  235  1  0.01375700  0.60847600  0.12831600  1
  C  237  1  0.01244800  0.69879200  0.12748500  1
  C  267  1  0.99726200  0.08819400  0.08284000  1
  C  268  1  0.99996800  0.17644300  0.08775300  1
  C  285  1  0.97497600  0.00537200  0.61962900  1
  C  286  1  0.99593600  0.99968000  0.59747000  1
  C  287  1  0.93474800  0.99494000  0.58085200  1
  C  288  1  0.84651400  0.99470400  0.58598400  1
  C  289  1  0.82221800  0.00141600  0.60774200  1
  C  290  1  0.88558800  0.00668600  0.62377400  1
  C  292  1  0.12752300  0.00779600  0.63230200  1
  C  304  1  0.00509800  0.12797000  0.88264200  1
  C  306  1  0.00360400  0.88640400  0.87412700  1
  C  307  1  0.00264200  0.82273000  0.85814800  1
  C  308  1  0.00504000  0.84670000  0.83631700  1
  C  320  1  0.16626300  0.00550600  0.42225800  1
  C  321  1  0.19045300  0.00614400  0.40043100  1
  C  322  1  0.12702700  0.00636100  0.38436500  1
  C  325  1  0.97446000  0.00643800  0.37164500  1
  C  326  1  0.88509000  0.00747800  0.37588100  1
  C  327  1  0.82149200  0.00837800  0.35987600  1
  C  328  1  0.84543000  0.00858800  0.33804400  1
  C  329  1  0.93361900  0.00711400  0.33287000  1
  C  330  1  0.99521400  0.00566600  0.34942000  1
  C  340  1  0.97884200  0.98084600  0.23272900  1
  C  341  1  0.93399000  0.92935000  0.24765200  1
  C  342  1  0.94960800  0.93922100  0.26976500  1
  C  343  1  0.00829400  0.99980800  0.27788400  1
  C  351  1  0.96559000  0.97073400  0.21081200  1
  C  353  1  0.09219100  0.93374000  0.74608800  1
  C  366  1  0.99755600  0.99274600  0.48131000  1
  C  367  1  0.99085600  0.91803200  0.49403200  1
  C  368  1  0.99946400  0.92417600  0.51650500  1
  C  374  1  0.98837400  0.99167400  0.45916000  1
  C  377  1  0.00473400  0.55818800  0.10959500  1
  C  378  1  0.00675600  0.46805300  0.11111500  1
  C  387  1  0.59837800  0.00829400  0.62924700  1
  C  388  1  0.41481600  0.00563400  0.62668900  1
  C  389  1  0.46517500  0.99618400  0.60799600  1
  C  390  1  0.55529700  0.99772200  0.60955700  1
  C  397  1  0.32451500  0.00466400  0.62580800  1
  C  399  1  0.99868000  0.41540500  0.87747400  1
  C  400  1  0.99184000  0.46570000  0.85869500  1
  C  401  1  0.99303200  0.55585300  0.86022300  1
  C  402  1  0.00046000  0.59913800  0.87997300  1
  C  403  1  0.00684600  0.54885900  0.89876600  1
  C  405  1  0.00596000  0.45867500  0.89723400  1
  C  410  1  0.99870700  0.32505100  0.87658000  1
  C  412  1  0.00175400  0.68949600  0.88078500  1
  C  414  1  0.59781700  0.00727400  0.38152100  1
  C  415  1  0.54739200  0.00268600  0.40031500  1
  C  416  1  0.45727800  0.00348400  0.39870300  1
  C  423  1  0.68812400  0.00670600  0.38243800  1
  H  1  1  0.01688300  0.06772000  0.16548700  1
  H  8  1  0.07191300  0.07797300  0.23021700  1
  H  9  1  0.07121600  0.03732500  0.30548800  1
  H  15  1  0.06543800  0.04616200  0.55489100  1
  H  20  1  0.02057800  0.05804900  0.84293100  1
  H  26  1  0.95550400  0.01699600  0.66364700  1
  H  27  1  0.21236400  0.03832600  0.70047700  1
  H  32  1  0.79953000  0.01014300  0.30728300  1
  H  35  1  0.94534600  0.07274200  0.72824700  1
  H  37  1  0.98480200  0.07323500  0.80355100  1
  H  41  1  0.12050400  0.05317800  0.97974100  1
  H  43  1  0.88693400  0.02510000  0.02965200  1
  H  46  1  0.09539000  0.01740000  0.05428700  1
  H  48  1  0.91222000  0.07612500  0.95595200  1
  H  51  1  0.42364500  0.02336500  0.66014700  1
  H  54  1  0.71862500  0.01625700  0.64449100  1
  H  58  1  0.58910700  0.01612100  0.34784000  1
  H  61  1  0.29403600  0.01162600  0.36349400  1
  H  65  1  0.28808400  0.03195200  0.68242200  1
  H  66  1  0.86394600  0.01098700  0.63897200  1
  H  69  1  0.72417200  0.01061000  0.32549900  1
  H  133  1  0.04027400  0.81080400  0.20234400  1
  H  135  1  0.05778500  0.99786200  0.59267500  1
  H  141  1  0.02534300  0.28694700  0.93328400  1
  H  145  1  0.05696800  0.00291000  0.34453800  1
  H  151  1  0.06980600  0.90700600  0.70434800  1
  H  153  1  0.01686300  0.12626600  0.48275000  1
  H  160  1  0.03098100  0.59949900  0.16178900  1
  H  163  1  0.02566800  0.30466600  0.14602600  1
  H  164  1  0.01105800  0.42448100  0.91107200  1
  H  224  1  0.03635000  0.73515200  0.18422700  1
  H  225  1  0.02316600  0.15918100  0.14061700  1
  H  226  1  0.01317000  0.87416000  0.11882100  1
  H  229  1  0.02684900  0.95544000  0.91336900  1
  H  232  1  0.03625300  0.21038500  0.95100100  1
  H  271  1  0.99474200  0.96531600  0.09463500  1
  H  279  1  0.99600000  0.29678100  0.07479400  1
  H  280  1  0.98810000  0.22003800  0.05698000  1
  H  297  1  0.72556400  0.98875200  0.57335700  1
  H  298  1  0.80138000  0.98464200  0.55526700  1
  H  300  1  0.14917100  0.00249400  0.61713400  1
  H  312  1  0.00001200  0.72550600  0.82378300  1
  H  313  1  0.00467300  0.80073000  0.80556400  1
  H  315  1  0.99552000  0.14917900  0.86752700  1
  H  316  1  0.99762600  0.86532400  0.88935400  1
  H  323  1  0.95493600  0.00627800  0.41559100  1
  H  333  1  0.28728600  0.00584400  0.43493100  1
  H  334  1  0.21154000  0.00451000  0.45306200  1
  H  335  1  0.14866100  0.00748400  0.36913200  1
  H  336  1  0.86346800  0.00782200  0.39110800  1
  H  344  1  0.91719000  0.90033200  0.28011700  1
  H  352  1  0.90798200  0.95253000  0.20585800  1
  H  355  1  0.11994900  0.91701200  0.77862200  1
  H  369  1  0.99520200  0.86946400  0.52540700  1
  H  375  1  0.94733000  0.94979400  0.45312900  1
  H  379  1  0.99990400  0.43381600  0.09733000  1
  H  386  1  0.00543600  0.72887400  0.11314500  1
  H  391  1  0.58956600  0.99051200  0.59579000  1
  H  398  1  0.29451000  0.99757600  0.61146000  1
  H  404  1  0.98786400  0.59001200  0.84638100  1
  H  411  1  0.99405400  0.29512300  0.86216100  1
  H  413  1  0.00624600  0.71963000  0.89518200  1
  H  417  1  0.42296400  0.99976400  0.41255000  1
  H  424  1  0.71808600  0.00369400  0.39688000  1
  N  4  1  0.05444900  0.02665600  0.69554000  1
  N  21  1  0.02744700  0.04946000  0.94543500  1
  N  25  1  0.98362200  0.06306300  0.06277100  1
  N  44  1  0.83253600  0.03485600  0.99007200  1
  N  45  1  0.17475500  0.04409400  0.01941200  1
  N  52  1  0.58774100  0.02912100  0.66807000  1
  N  59  1  0.42503300  0.01913500  0.33979100  1
  N  64  1  0.22750800  0.03017200  0.68559700  1
  N  67  1  0.27571300  0.01205300  0.64349900  1
  N  68  1  0.78477200  0.00956900  0.32233600  1
  N  134  1  0.02786900  0.96864000  0.19738700  1
  N  139  1  0.02591100  0.22616500  0.93625100  1
  N  146  1  0.05605700  0.00780300  0.44803100  1
  N  154  1  0.03506100  0.15765900  0.52406900  1
  N  161  1  0.03721800  0.43539300  0.16965000  1
  N  165  1  0.01515400  0.58880200  0.91896000  1
  N  223  1  0.03357900  0.79568300  0.18741700  1
  N  227  1  0.01881500  0.74748600  0.14522400  1
  N  228  1  0.01137500  0.28562800  0.11399900  1
  N  233  1  0.01594300  0.95549000  0.81051700  1
  N  272  1  0.99393800  0.23598300  0.07189100  1
  N  291  1  0.78623400  0.98898800  0.57025900  1
  N  302  1  0.73759000  0.00268600  0.61243300  1
  N  303  1  0.95690000  0.98805600  0.56027100  1
  N  311  1  0.00347000  0.78602400  0.82061700  1
  N  318  1  0.00083600  0.73818400  0.86296500  1
  N  319  1  0.00607400  0.27595000  0.89423200  1
  N  324  1  0.22662200  0.00548600  0.43802900  1
  N  337  1  0.95453400  0.00361800  0.31221800  1
  N  338  1  0.73695200  0.00844700  0.36466100  1
  N  339  1  0.27505400  0.00684600  0.39571000  1
  N  345  1  0.11417600  0.11108100  0.27027100  1
  N  346  1  0.87500400  0.86714200  0.24037200  1
  N  356  1  0.91129400  0.11573200  0.76821400  1
  N  357  1  0.15403300  0.87400800  0.73899200  1
  N  370  1  0.97703800  0.83808600  0.48406400  1
  N  380  1  0.99318900  0.59805200  0.08949100  1
  N  392  1  0.42540300  0.98481400  0.58787400  1
  N  406  1  0.98374200  0.42583500  0.83848500  1
  N  418  1  0.58707300  0.99665000  0.42059100  1
  O  70  1  0.44423100  0.04373700  0.57511600  1
  O  71  1  0.56794500  0.05865300  0.43237200  1
  O  155  1  0.03721700  0.78714000  0.48770900  1
  O  166  1  0.08424600  0.56931100  0.92790400  1
  O  236  1  0.05221600  0.57962100  0.07672700  1
  O  238  1  0.04456700  0.44476000  0.82630500  1
  O  347  1  0.18790500  0.09445900  0.26357500  1
  O  348  1  0.80102000  0.88155600  0.24721900  1
  O  349  1  0.89668400  0.79304800  0.24580500  1
  O  350  1  0.09469600  0.18555800  0.26466100  1
  O  358  1  0.92859200  0.18926400  0.76148900  1
  O  359  1  0.13865700  0.80028400  0.74588400  1
  O  360  1  0.22815500  0.89503800  0.74455700  1
  O  361  1  0.83686200  0.09666800  0.76247800  1
  O  362  1  0.78985800  0.09613200  0.99739000  1
  O  363  1  0.21105400  0.11258000  0.01426600  1
  O  364  1  0.21726200  0.98256800  0.01217100  1
  O  365  1  0.79653200  0.96612600  0.99513200  1
  O  371  1  0.90842400  0.80462800  0.49018900  1
  O  372  1  0.10369200  0.19104700  0.51792800  1
  O  373  1  0.97490600  0.20865000  0.52043100  1
  O  381  1  0.92299000  0.57801100  0.08118800  1
  O  382  1  0.10719100  0.45547300  0.17806200  1
  O  383  1  0.97784800  0.45385600  0.18231300  1
  O  393  1  0.44514800  0.91450400  0.57958700  1
  O  394  1  0.56797500  0.09945700  0.67634000  1
  O  395  1  0.56885100  0.97024800  0.68083700  1
  O  407  1  0.91473400  0.44538300  0.82951600  1
  O  409  1  0.95444400  0.56989600  0.93117500  1
  O  419  1  0.56751600  0.92854000  0.42998300  1
  O  420  1  0.44458600  0.08720700  0.33038100  1
  O  421  1  0.44420900  0.95709800  0.32802700  1
