# generated using pymatgen
data_H28C39(N4O)2
_symmetry_space_group_name_H-M   'P 1'
_cell_length_a   42.37650000
_cell_length_b   42.37650000
_cell_length_c   42.38970000
_cell_angle_alpha   90.00000000
_cell_angle_beta   90.00000000
_cell_angle_gamma   120.00000000
_symmetry_Int_Tables_number   1
_chemical_formula_structural   H28C39(N4O)2
_chemical_formula_sum   'H168 C234 N48 O12'
_cell_volume   65923.63453333
_cell_formula_units_Z   6
loop_
 _symmetry_equiv_pos_site_id
 _symmetry_equiv_pos_as_xyz
  1  'x, y, z'
loop_
 _atom_site_type_symbol
 _atom_site_label
 _atom_site_symmetry_multiplicity
 _atom_site_fract_x
 _atom_site_fract_y
 _atom_site_fract_z
 _atom_site_occupancy
  H  3  1  0.86536100  0.32825700  0.71461500  1
  H  7  1  0.87175100  0.54201200  0.10539800  1
  H  13  1  0.91902500  0.55310300  0.18266700  1
  H  14  1  0.89604800  0.55458700  0.21694600  1
  H  15  1  0.94310600  0.56947800  0.21900800  1
  H  17  1  0.93208900  0.60247500  0.10676400  1
  H  22  1  0.98424800  0.33986900  0.60868100  1
  H  24  1  0.92816700  0.32376200  0.72305800  1
  H  48  1  0.75884900  0.14149000  0.80492400  1
  H  49  1  0.78461600  0.20023300  0.78106800  1
  H  50  1  0.65515100  0.11606900  0.77174900  1
  H  51  1  0.68051200  0.17452400  0.74828500  1
  H  52  1  0.69451800  0.23698900  0.76944700  1
  H  53  1  0.69172900  0.27123300  0.81268000  1
  H  54  1  0.80043100  0.30358500  0.83602200  1
  H  55  1  0.80326700  0.26930300  0.79294300  1
  H  56  1  0.80619200  0.30302400  0.73690800  1
  H  57  1  0.84569200  0.22281000  0.69367300  1
  H  58  1  0.78636800  0.19730700  0.71619500  1
  H  59  1  0.72114300  0.18414600  0.69511000  1
  H  60  1  0.74023200  0.28703000  0.72548700  1
  H  61  1  0.70565200  0.28909900  0.68269600  1
  H  65  1  0.68633100  0.18627700  0.65192900  1
  H  91  1  0.36739100  0.22900800  0.47144700  1
  H  92  1  0.40039200  0.20326700  0.44760100  1
  H  93  1  0.44586700  0.33278700  0.43860400  1
  H  94  1  0.47899000  0.30744300  0.41514800  1
  H  95  1  0.52751300  0.29335900  0.43596700  1
  H  96  1  0.56453200  0.29614300  0.47920800  1
  H  97  1  0.48791100  0.18761400  0.50281500  1
  H  98  1  0.45080700  0.18478600  0.45972500  1
  H  99  1  0.48152400  0.18153800  0.40378700  1
  H  100  1  0.44752400  0.12239800  0.38142700  1
  H  101  1  0.36213600  0.14250300  0.36003500  1
  H  102  1  0.39599900  0.20177300  0.38264000  1
  H  103  1  0.44798000  0.26704600  0.36189000  1
  H  104  1  0.53150000  0.24740800  0.39200800  1
  H  105  1  0.56816100  0.28196000  0.34921000  1
  H  110  1  0.48493600  0.30183500  0.31871400  1
  H  134  1  0.84652700  0.62059700  0.13809700  1
  H  135  1  0.78779800  0.58761300  0.11422600  1
  H  136  1  0.81329900  0.50891200  0.08192000  1
  H  137  1  0.75067900  0.46036900  0.10259500  1
  H  138  1  0.71645500  0.42334400  0.14583500  1
  H  139  1  0.68468400  0.50004100  0.16955500  1
  H  140  1  0.71895100  0.53715000  0.12646000  1
  H  141  1  0.68490400  0.50640800  0.07054000  1
  H  142  1  0.65972600  0.54036500  0.04817900  1
  H  143  1  0.76518300  0.62573700  0.02665000  1
  H  144  1  0.79062600  0.59190400  0.04925700  1
  H  145  1  0.80401400  0.53994100  0.02861300  1
  H  146  1  0.70077400  0.45649800  0.05862000  1
  H  147  1  0.69865400  0.41984800  0.01580800  1
  H  151  1  0.80185200  0.50299400  0.98542500  1
  H  177  1  0.22302200  0.85236900  0.30505700  1
  H  178  1  0.19727300  0.79363300  0.28119500  1
  H  179  1  0.32666200  0.87797200  0.27158900  1
  H  180  1  0.30132000  0.81952600  0.24812400  1
  H  181  1  0.28734700  0.75713700  0.26957900  1
  H  182  1  0.29013700  0.72290500  0.31282300  1
  H  183  1  0.18127800  0.69017000  0.33590900  1
  H  184  1  0.17843900  0.72443800  0.29282600  1
  H  185  1  0.17574600  0.69093500  0.23673200  1
  H  186  1  0.11657400  0.66567400  0.21443600  1
  H  187  1  0.13602600  0.77112500  0.19384400  1
  H  188  1  0.19535400  0.79665200  0.21635700  1
  H  189  1  0.26048700  0.80965300  0.19500500  1
  H  190  1  0.24180900  0.70698900  0.22561600  1
  H  191  1  0.27640400  0.70493200  0.18283400  1
  H  196  1  0.29530100  0.80752600  0.15182200  1
  H  222  1  0.61452600  0.76499800  0.97137000  1
  H  223  1  0.58151500  0.79072600  0.94752100  1
  H  224  1  0.53593900  0.66117200  0.93871500  1
  H  225  1  0.50281000  0.68650500  0.91525200  1
  H  226  1  0.45425000  0.70060200  0.93589600  1
  H  227  1  0.41723100  0.69781500  0.97913600  1
  H  228  1  0.49396000  0.80626400  0.00287300  1
  H  229  1  0.53106800  0.80909900  0.95977800  1
  H  230  1  0.50034400  0.81244900  0.90388100  1
  H  231  1  0.53433300  0.87158600  0.88151400  1
  H  232  1  0.61963000  0.85140200  0.85993400  1
  H  233  1  0.58577400  0.79213500  0.88254900  1
  H  234  1  0.53383100  0.72680200  0.86193200  1
  H  235  1  0.45041900  0.74665500  0.89193600  1
  H  236  1  0.41375400  0.71211500  0.84913400  1
  H  241  1  0.49686900  0.69201200  0.81875700  1
  H  267  1  0.13533600  0.37341800  0.63815300  1
  H  268  1  0.19406700  0.40639400  0.61428100  1
  H  269  1  0.11005500  0.45191000  0.60530500  1
  H  270  1  0.16850600  0.48500100  0.58182500  1
  H  271  1  0.23109100  0.53352600  0.60263200  1
  H  272  1  0.26532600  0.57056200  0.64586700  1
  H  273  1  0.29724400  0.49395700  0.66950200  1
  H  274  1  0.26296700  0.45683600  0.62641600  1
  H  275  1  0.29692900  0.48756600  0.57046400  1
  H  276  1  0.32210800  0.45360800  0.54810700  1
  H  277  1  0.21664000  0.36816000  0.52672000  1
  H  278  1  0.19120000  0.40199600  0.54932400  1
  H  279  1  0.17787100  0.45398400  0.52857400  1
  H  280  1  0.28103600  0.53751000  0.55866600  1
  H  281  1  0.28315200  0.57414800  0.51584700  1
  H  286  1  0.18004100  0.49092000  0.48538000  1
  H  294  1  0.80744600  0.40402100  0.89296100  1
  H  296  1  0.65100600  0.31636800  0.88942100  1
  H  297  1  0.64542100  0.27633000  0.87129800  1
  H  298  1  0.67620000  0.31921000  0.85475200  1
  H  300  1  0.70469200  0.39199200  0.97114900  1
  H  302  1  0.79256600  0.34919800  0.86266100  1
  H  310  1  0.58133400  0.18045700  0.55969700  1
  H  312  1  0.65026800  0.33692500  0.55604800  1
  H  313  1  0.61582400  0.34252200  0.53792300  1
  H  314  1  0.62789000  0.31171000  0.52139300  1
  H  316  1  0.67229400  0.28329800  0.63770900  1
  H  318  1  0.54135400  0.19536100  0.52945200  1
  H  326  1  0.58403700  0.40659000  0.22638300  1
  H  328  1  0.67154800  0.33763500  0.22272800  1
  H  329  1  0.71159400  0.37207600  0.20460400  1
  H  330  1  0.66871500  0.36001700  0.18807600  1
  H  332  1  0.59591500  0.31565700  0.30442500  1
  H  334  1  0.63894000  0.44658300  0.19615800  1
  H  342  1  0.17437700  0.58990500  0.39296300  1
  H  344  1  0.33080800  0.67757100  0.38939400  1
  H  345  1  0.33638800  0.71761000  0.37127600  1
  H  346  1  0.30560300  0.67473200  0.35473200  1
  H  348  1  0.27716600  0.60193900  0.47111200  1
  H  350  1  0.18924500  0.64469700  0.36263500  1
  H  358  1  0.40050300  0.81346600  0.05970300  1
  H  360  1  0.33157600  0.65699500  0.05606300  1
  H  361  1  0.36602300  0.65140300  0.03793300  1
  H  362  1  0.35394500  0.68220900  0.02140600  1
  H  364  1  0.30955600  0.71063100  0.13772700  1
  H  366  1  0.44051300  0.79856500  0.02948800  1
  H  374  1  0.39785600  0.58742100  0.72633200  1
  H  376  1  0.31027200  0.65629100  0.72274900  1
  H  377  1  0.27022900  0.62184500  0.70462200  1
  H  378  1  0.31311100  0.63392800  0.68808400  1
  H  380  1  0.38589600  0.67823000  0.80446800  1
  H  382  1  0.34298600  0.54745000  0.69607500  1
  H  390  1  0.64162100  0.99038700  0.77529700  1
  H  392  1  0.61871000  0.06868500  0.84926700  1
  H  393  1  0.64312200  0.09171600  0.88355000  1
  H  394  1  0.61108000  0.04462400  0.88561100  1
  H  396  1  0.60127200  0.93413300  0.88955700  1
  H  398  1  0.65519300  0.05581300  0.77339300  1
  H  406  1  0.33365500  0.34633000  0.44198000  1
  H  408  1  0.43482200  0.36912200  0.51590800  1
  H  409  1  0.43344200  0.34472800  0.55020200  1
  H  410  1  0.41843400  0.37680300  0.55225200  1
  H  412  1  0.31763800  0.38656700  0.55629500  1
  H  414  1  0.38548100  0.33271300  0.44007600  1
  H  419  1  0.99759600  0.65405600  0.10867000  1
  H  421  1  0.05359600  0.67003600  0.22301100  1
  H  429  1  0.34014600  0.00357300  0.27530000  1
  H  431  1  0.36314600  0.92528500  0.34922400  1
  H  432  1  0.33874800  0.90224100  0.38351000  1
  H  433  1  0.37078200  0.94933500  0.38557500  1
  H  435  1  0.38059700  0.05981700  0.38955000  1
  H  437  1  0.32655600  0.93816200  0.27335400  1
  H  445  1  0.64819200  0.64763800  0.94198800  1
  H  447  1  0.54702200  0.62483100  0.01591600  1
  H  448  1  0.54839700  0.64922000  0.05021200  1
  H  449  1  0.56341000  0.61714900  0.05226200  1
  H  451  1  0.66421700  0.60740300  0.05630300  1
  H  453  1  0.59635300  0.66124900  0.94009300  1
  H  458  1  0.06279200  0.44085000  0.68265900  1
  H  459  1  0.08577900  0.43939000  0.71694100  1
  H  460  1  0.03871700  0.42447300  0.71900000  1
  H  462  1  0.04974000  0.39150300  0.60677000  1
  C  1  1  0.86187700  0.27785400  0.70332900  1
  C  2  1  0.84925200  0.30051900  0.71560300  1
  C  5  1  0.86561000  0.58568700  0.12244000  1
  C  6  1  0.85478000  0.55266000  0.10634400  1
  C  9  1  0.96021400  0.62491900  0.17994400  1
  C  10  1  0.96041600  0.62907500  0.14673100  1
  C  12  1  0.92171100  0.56867200  0.20404900  1
  C  16  1  0.92941400  0.61082200  0.12804500  1
  C  18  1  0.98680100  0.34353700  0.63259000  1
  C  20  1  0.95678100  0.33196200  0.68218700  1
  C  23  1  0.92538200  0.31852500  0.70001200  1
  C  25  1  0.69183100  0.23746000  0.66333300  1
  C  26  1  0.70853700  0.26667300  0.68494900  1
  C  27  1  0.72866700  0.26510200  0.71065100  1
  C  28  1  0.73188000  0.23385100  0.71680800  1
  C  29  1  0.71788800  0.20639500  0.69314700  1
  C  30  1  0.69748000  0.20765000  0.66745700  1
  C  31  1  0.75235100  0.23136000  0.74560300  1
  C  32  1  0.79068400  0.24709500  0.73173400  1
  C  33  1  0.80293600  0.22494300  0.71711700  1
  C  34  1  0.83782000  0.23990600  0.70340200  1
  C  35  1  0.81422000  0.28539500  0.72885100  1
  C  36  1  0.75032700  0.25201500  0.77448300  1
  C  37  1  0.73612300  0.19292100  0.75937500  1
  C  38  1  0.75745100  0.18245600  0.77778600  1
  C  39  1  0.74232000  0.14788300  0.79212800  1
  C  40  1  0.70491800  0.12232000  0.78904700  1
  C  41  1  0.68275900  0.13307800  0.77278700  1
  C  42  1  0.69800900  0.16775000  0.75880000  1
  C  43  1  0.71744700  0.25127400  0.78283800  1
  C  44  1  0.71559500  0.27136000  0.80847400  1
  C  45  1  0.74632000  0.29215000  0.82761000  1
  C  46  1  0.77814500  0.29027400  0.82171900  1
  C  47  1  0.77973700  0.27003700  0.79605900  1
  C  66  1  0.53049700  0.29607900  0.32999700  1
  C  67  1  0.54291700  0.27921800  0.35153300  1
  C  68  1  0.52118900  0.25906200  0.37721600  1
  C  69  1  0.48682300  0.25603700  0.38346800  1
  C  70  1  0.47343200  0.27018400  0.35987700  1
  C  71  1  0.49509900  0.29057300  0.33418500  1
  C  72  1  0.46387900  0.23557600  0.41227200  1
  C  73  1  0.44127300  0.19724200  0.39841500  1
  C  74  1  0.40697000  0.18512200  0.38364700  1
  C  75  1  0.38702500  0.15027200  0.36988200  1
  C  76  1  0.40078700  0.12610900  0.36992200  1
  C  77  1  0.43598300  0.13858800  0.38234700  1
  C  78  1  0.45591800  0.17359400  0.39564800  1
  C  79  1  0.48658900  0.23762300  0.44113300  1
  C  80  1  0.44167800  0.25180900  0.42604900  1
  C  81  1  0.40982200  0.23044900  0.44438100  1
  C  82  1  0.39036300  0.24556300  0.45871700  1
  C  83  1  0.40223600  0.28297900  0.45570200  1
  C  84  1  0.43524700  0.30517200  0.43958500  1
  C  85  1  0.45468100  0.28993500  0.42559400  1
  C  86  1  0.51881100  0.27046100  0.44941100  1
  C  87  1  0.54074000  0.27231300  0.47505400  1
  C  88  1  0.53070800  0.24163500  0.49428000  1
  C  89  1  0.49694400  0.20986000  0.48845300  1
  C  90  1  0.47512600  0.20827400  0.46278900  1
  C  111  1  0.75049600  0.45746400  0.99666200  1
  C  112  1  0.72117500  0.44507800  0.01815000  1
  C  113  1  0.72275300  0.46679500  0.04384500  1
  C  114  1  0.75412600  0.50111900  0.05014900  1
  C  115  1  0.78169000  0.51449800  0.02658200  1
  C  116  1  0.78040600  0.49284200  0.00087500  1
  C  117  1  0.75658700  0.52405200  0.07895300  1
  C  118  1  0.74085400  0.54665800  0.06511200  1
  C  119  1  0.76300600  0.58093000  0.05028300  1
  C  120  1  0.74807900  0.60085900  0.03652500  1
  C  121  1  0.71015200  0.58709100  0.03659300  1
  C  122  1  0.68746100  0.55191700  0.04907100  1
  C  123  1  0.70255400  0.53199900  0.06236100  1
  C  124  1  0.73591600  0.50132600  0.10780400  1
  C  125  1  0.79501500  0.54627500  0.09273900  1
  C  126  1  0.80553000  0.57815300  0.11104300  1
  C  127  1  0.84009800  0.59760600  0.12539300  1
  C  128  1  0.82011200  0.53323500  0.09234500  1
  C  129  1  0.73648600  0.46907000  0.11604400  1
  C  130  1  0.71642800  0.44714600  0.14169700  1
  C  131  1  0.69583000  0.45720200  0.16096100  1
  C  132  1  0.69786000  0.49099000  0.15516700  1
  C  133  1  0.71808900  0.51281300  0.12950300  1
  C  152  1  0.29001400  0.75646100  0.16334800  1
  C  153  1  0.27345300  0.72732200  0.18504900  1
  C  154  1  0.25330100  0.72888400  0.21074000  1
  C  155  1  0.24996100  0.76007400  0.21682100  1
  C  156  1  0.26385300  0.78746500  0.19310100  1
  C  157  1  0.28424300  0.78620300  0.16740100  1
  C  158  1  0.22947500  0.76258300  0.24559700  1
  C  159  1  0.19115200  0.74685200  0.23171200  1
  C  160  1  0.17883400  0.76900600  0.21720600  1
  C  161  1  0.14394900  0.75402900  0.20348800  1
  C  162  1  0.11995900  0.71606800  0.20329900  1
  C  163  1  0.13264800  0.69341600  0.21547400  1
  C  164  1  0.16767800  0.70855200  0.22873000  1
  C  165  1  0.23147700  0.74193300  0.27449300  1
  C  166  1  0.24572300  0.80103600  0.25934300  1
  C  167  1  0.22441900  0.81144600  0.27785500  1
  C  168  1  0.23954000  0.84601800  0.29219800  1
  C  169  1  0.27691700  0.87163400  0.28903500  1
  C  170  1  0.29906700  0.86091400  0.27271200  1
  C  171  1  0.28382400  0.82625600  0.25869700  1
  C  172  1  0.26439200  0.74278700  0.28292700  1
  C  173  1  0.26623800  0.72269000  0.30855800  1
  C  174  1  0.23547900  0.70180900  0.32763100  1
  C  175  1  0.20360200  0.70356500  0.32166000  1
  C  176  1  0.20201700  0.72380600  0.29600300  1
  C  197  1  0.45135200  0.69786100  0.82999300  1
  C  198  1  0.43897900  0.71481100  0.85147800  1
  C  199  1  0.46070400  0.73495300  0.87716800  1
  C  200  1  0.49502800  0.73790100  0.88346400  1
  C  201  1  0.50838700  0.72368300  0.85991000  1
  C  202  1  0.48672400  0.70330900  0.83421000  1
  C  203  1  0.51795900  0.75837000  0.91227100  1
  C  204  1  0.54055400  0.79670500  0.89841700  1
  C  205  1  0.57482300  0.80880100  0.88359000  1
  C  206  1  0.59476100  0.84364900  0.86981800  1
  C  207  1  0.58102600  0.86783400  0.86991200  1
  C  208  1  0.54585900  0.85537900  0.88239500  1
  C  209  1  0.52593100  0.82037700  0.89570200  1
  C  210  1  0.49523400  0.75630900  0.94112600  1
  C  211  1  0.54017100  0.74215300  0.92605700  1
  C  212  1  0.57206200  0.76353500  0.94434100  1
  C  213  1  0.59152900  0.74843000  0.95868000  1
  C  214  1  0.57962800  0.71100300  0.95572000  1
  C  215  1  0.54658100  0.68879200  0.93965600  1
  C  216  1  0.52714300  0.70402100  0.92565800  1
  C  217  1  0.46297800  0.72348500  0.94936600  1
  C  218  1  0.44103300  0.72163900  0.97499500  1
  C  219  1  0.45110700  0.75229100  0.99426700  1
  C  220  1  0.48490400  0.78403900  0.98848100  1
  C  221  1  0.50672500  0.78562800  0.96281700  1
  C  242  1  0.23136700  0.53647800  0.49663900  1
  C  243  1  0.26065500  0.54890200  0.51816800  1
  C  244  1  0.25907600  0.52718900  0.54386800  1
  C  245  1  0.22772600  0.49283700  0.55014300  1
  C  246  1  0.20020100  0.47942600  0.52654000  1
  C  247  1  0.20147200  0.50108700  0.50084300  1
  C  248  1  0.22525400  0.46989900  0.57894700  1
  C  249  1  0.24098100  0.44728600  0.56510400  1
  C  250  1  0.21882400  0.41298800  0.55032200  1
  C  251  1  0.23374800  0.39305600  0.53656400  1
  C  252  1  0.27168000  0.40685200  0.53658800  1
  C  253  1  0.29437300  0.44204500  0.54902700  1
  C  254  1  0.27928100  0.46196500  0.56231600  1
  C  255  1  0.24592700  0.49261800  0.60780100  1
  C  256  1  0.18682400  0.44768200  0.59272900  1
  C  257  1  0.17632300  0.41583500  0.61107300  1
  C  258  1  0.14175700  0.39639100  0.62542300  1
  C  259  1  0.11623400  0.40829300  0.62243900  1
  C  260  1  0.12704600  0.44128800  0.60629800  1
  C  261  1  0.16171000  0.46070100  0.59228800  1
  C  262  1  0.24531000  0.52484200  0.61606900  1
  C  263  1  0.26538300  0.54677900  0.64171200  1
  C  264  1  0.28603900  0.53676000  0.66093600  1
  C  265  1  0.28403500  0.50298600  0.65513100  1
  C  266  1  0.26379800  0.48115700  0.62947400  1
  C  287  1  0.72047900  0.33913100  0.90383000  1
  C  288  1  0.75577000  0.35532400  0.89015100  1
  C  289  1  0.78143100  0.39033600  0.90159900  1
  C  291  1  0.73860600  0.39034300  0.93773700  1
  C  295  1  0.66520900  0.30457600  0.87690800  1
  C  299  1  0.72949300  0.40605400  0.96191400  1
  C  301  1  0.76616100  0.33878800  0.86716500  1
  C  303  1  0.60352500  0.26746700  0.57049200  1
  C  304  1  0.58437800  0.23216200  0.55685000  1
  C  305  1  0.59370400  0.20648400  0.56831000  1
  C  307  1  0.63660800  0.24933100  0.60439400  1
  C  311  1  0.62426500  0.32272600  0.54354200  1
  C  315  1  0.66145800  0.25845300  0.62854900  1
  C  317  1  0.55742100  0.22176900  0.53389400  1
  C  319  1  0.64884500  0.38438600  0.23718000  1
  C  320  1  0.63269200  0.40353900  0.22353800  1
  C  321  1  0.59769100  0.39421700  0.23499500  1
  C  323  1  0.59762400  0.35130700  0.27107700  1
  C  327  1  0.68335500  0.36363800  0.21022500  1
  C  331  1  0.58188900  0.32645700  0.29523400  1
  C  333  1  0.64926200  0.43049600  0.20058100  1
  C  335  1  0.26134100  0.65480800  0.40382200  1
  C  336  1  0.22604700  0.63861000  0.39014600  1
  C  337  1  0.20039300  0.60359300  0.40159700  1
  C  339  1  0.24323100  0.60359600  0.43772600  1
  C  343  1  0.31660200  0.68936600  0.37688800  1
  C  347  1  0.25235500  0.58787800  0.46188800  1
  C  349  1  0.21564700  0.65513700  0.36716000  1
  C  351  1  0.37831400  0.72645800  0.07050000  1
  C  352  1  0.39746200  0.76176500  0.05685800  1
  C  353  1  0.38813200  0.78743800  0.06831600  1
  C  355  1  0.34522800  0.74459200  0.10439800  1
  C  359  1  0.35757600  0.67119600  0.04355500  1
  C  363  1  0.32037800  0.73547000  0.12855400  1
  C  365  1  0.42442200  0.77215500  0.03390600  1
  C  367  1  0.33300700  0.60956100  0.73717200  1
  C  368  1  0.34917900  0.59043600  0.72350800  1
  C  369  1  0.38418700  0.59977200  0.73495900  1
  C  371  1  0.38422500  0.64264100  0.77107400  1
  C  375  1  0.29847200  0.63029200  0.71023800  1
  C  379  1  0.39994500  0.66747200  0.79524300  1
  C  381  1  0.33262700  0.56349700  0.70053600  1
  C  383  1  0.64956100  0.02770100  0.84656200  1
  C  384  1  0.65355700  0.02752000  0.81335200  1
  C  385  1  0.64043300  0.99291800  0.79920300  1
  C  387  1  0.62204300  0.96287700  0.84878900  1
  C  391  1  0.63162600  0.06605900  0.87065300  1
  C  395  1  0.60443100  0.93144700  0.86660700  1
  C  397  1  0.66623900  0.05851000  0.79466700  1
  C  399  1  0.36298600  0.33832500  0.51324000  1
  C  400  1  0.35881100  0.33433800  0.48003200  1
  C  401  1  0.33736500  0.34750100  0.46588400  1
  C  403  1  0.32573800  0.36590400  0.51547600  1
  C  407  1  0.41928900  0.35623200  0.53730300  1
  C  411  1  0.31204100  0.38361300  0.53330400  1
  C  413  1  0.37711300  0.32165000  0.46134300  1
  C  415  1  0.99504400  0.65039200  0.13258100  1
  C  417  1  0.02507800  0.66192400  0.18217100  1
  C  420  1  0.05650400  0.67528700  0.19996800  1
  C  422  1  0.33227300  0.96625300  0.34655100  1
  C  423  1  0.32825100  0.96643800  0.31334500  1
  C  424  1  0.34135500  0.00103800  0.29920200  1
  C  426  1  0.35978500  0.03107300  0.34878700  1
  C  430  1  0.35023400  0.92790200  0.37061800  1
  C  434  1  0.37741100  0.06250300  0.36660500  1
  C  436  1  0.31555300  0.93545000  0.29464900  1
  C  438  1  0.61885600  0.65563300  0.01325300  1
  C  439  1  0.62303400  0.65962400  0.98004200  1
  C  440  1  0.64448100  0.64646400  0.96589400  1
  C  442  1  0.65610400  0.62805300  0.01548200  1
  C  446  1  0.56255400  0.63772000  0.03731300  1
  C  450  1  0.66980400  0.61034700  0.03331000  1
  C  452  1  0.60473200  0.67231500  0.96135900  1
  C  454  1  0.02163400  0.36902900  0.67995000  1
  C  455  1  0.02142900  0.36487900  0.64673500  1
  C  457  1  0.06011600  0.42528800  0.70404400  1
  C  461  1  0.05242600  0.38315000  0.62804600  1
  N  4  1  0.89483000  0.29104600  0.69042900  1
  N  8  1  0.89761600  0.60400900  0.13717500  1
  N  19  1  0.95596700  0.32811200  0.65031800  1
  N  21  1  0.98972100  0.35256900  0.69624900  1
  N  62  1  0.69123600  0.09031100  0.80377500  1
  N  63  1  0.74294500  0.31155500  0.85066000  1
  N  64  1  0.66999600  0.23553500  0.63985100  1
  N  106  1  0.38390200  0.29664300  0.47044700  1
  N  107  1  0.55348600  0.24499300  0.51732400  1
  N  108  1  0.55042300  0.31790400  0.30651500  1
  N  109  1  0.38103700  0.09323100  0.35691200  1
  N  148  1  0.67641000  0.43442000  0.18400200  1
  N  149  1  0.75238700  0.43754500  0.97316900  1
  N  150  1  0.69699700  0.60684400  0.02362800  1
  N  192  1  0.29059800  0.90363700  0.30377400  1
  N  193  1  0.23885400  0.68240100  0.35067900  1
  N  194  1  0.31183800  0.75838500  0.13985700  1
  N  195  1  0.08699100  0.70286900  0.19043000  1
  N  237  1  0.59795900  0.69733400  0.97046100  1
  N  238  1  0.42832900  0.74893100  0.01731300  1
  N  239  1  0.43142700  0.67605000  0.80650500  1
  N  240  1  0.60077000  0.90071200  0.85689600  1
  N  282  1  0.08422500  0.38996200  0.63716400  1
  N  283  1  0.30544500  0.55953800  0.68398700  1
  N  284  1  0.22946000  0.55639400  0.47315500  1
  N  285  1  0.28483200  0.38709100  0.52362900  1
  N  290  1  0.77239500  0.40658700  0.92466800  1
  N  292  1  0.71350200  0.35677600  0.92717400  1
  N  306  1  0.61901400  0.21552400  0.59135800  1
  N  308  1  0.62816800  0.27444800  0.59381900  1
  N  322  1  0.58141600  0.36890600  0.25804400  1
  N  324  1  0.63117900  0.35974100  0.26050400  1
  N  338  1  0.20943800  0.58734600  0.42466200  1
  N  340  1  0.26832700  0.63716400  0.42716300  1
  N  354  1  0.36282200  0.77839900  0.09136400  1
  N  356  1  0.35366900  0.71947600  0.09382400  1
  N  370  1  0.40045100  0.62507000  0.75801900  1
  N  372  1  0.35066100  0.63419100  0.76050500  1
  N  386  1  0.62515600  0.96208500  0.81692800  1
  N  388  1  0.63423500  0.99578900  0.86286200  1
  N  402  1  0.32184200  0.36281100  0.48361300  1
  N  404  1  0.34643500  0.35368300  0.52954400  1
  N  416  1  0.02588500  0.66577500  0.15030000  1
  N  418  1  0.99213500  0.64134100  0.19623600  1
  N  425  1  0.35664400  0.03187000  0.31693100  1
  N  427  1  0.34761000  0.99816200  0.36285400  1
  N  441  1  0.66000300  0.63115100  0.98361900  1
  N  443  1  0.63540700  0.64027300  0.02955200  1
  O  11  1  0.92874100  0.60474600  0.19668900  1
  O  293  1  0.69328900  0.30480500  0.89614100  1
  O  309  1  0.59641100  0.29467000  0.56279200  1
  O  325  1  0.68316000  0.39149300  0.22947800  1
  O  341  1  0.28852900  0.68913500  0.39612900  1
  O  357  1  0.38543100  0.69925900  0.06280000  1
  O  373  1  0.29868500  0.60243600  0.72947700  1
  O  389  1  0.66075500  0.05916000  0.86330000  1
  O  405  1  0.38324300  0.32711800  0.52997500  1
  O  428  1  0.32109200  0.93479000  0.36328100  1
  O  444  1  0.59859700  0.66683600  0.02998800  1
  O  456  1  0.05310800  0.38922200  0.69668800  1
