# generated using pymatgen
data_CuH18C24(NO)4
_symmetry_space_group_name_H-M   'P 1'
_cell_length_a   13.02843000
_cell_length_b   25.24832459
_cell_length_c   25.29146000
_cell_angle_alpha   117.07827433
_cell_angle_beta   99.93472000
_cell_angle_gamma   99.81441095
_symmetry_Int_Tables_number   1
_chemical_formula_structural   CuH18C24(NO)4
_chemical_formula_sum   'Cu6 H108 C144 N24 O24'
_cell_volume   6996.27856308
_cell_formula_units_Z   6
loop_
 _symmetry_equiv_pos_site_id
 _symmetry_equiv_pos_as_xyz
  1  'x, y, z'
loop_
 _atom_site_type_symbol
 _atom_site_label
 _atom_site_symmetry_multiplicity
 _atom_site_fract_x
 _atom_site_fract_y
 _atom_site_fract_z
 _atom_site_occupancy
  Cu  Cu0  1  0.54078000  0.99983000  0.45984000  1
  Cu  Cu1  1  0.53991000  0.45959000  0.00002000  1
  Cu  Cu2  1  0.08037000  0.53994000  0.54005000  1
  Cu  Cu3  1  0.45966000  0.00019000  0.54005000  1
  Cu  Cu4  1  0.91976000  0.46004000  0.46000000  1
  Cu  Cu5  1  0.46033000  0.54022000  0.00003000  1
  H  H6  1  0.44760000  0.14616000  0.43840000  1
  H  H7  1  0.29030000  0.13747000  0.57257000  1
  H  H8  1  0.66139000  0.22401000  0.34331000  1
  H  H9  1  0.43741000  0.18136000  0.31809000  1
  H  H10  1  0.80868000  0.27297000  0.46528000  1
  H  H11  1  0.76932000  0.33559000  0.51916000  1
  H  H12  1  0.79944000  0.33683000  0.45343000  1
  H  H13  1  0.31008000  0.20665000  0.38021000  1
  H  H14  1  0.35372000  0.28190000  0.44564000  1
  H  H15  1  0.30021000  0.29305000  0.85516000  1
  H  H16  1  0.15045000  0.43557000  0.86272000  1
  H  H17  1  0.43747000  0.11844000  0.77561000  1
  H  H18  1  0.25698000  0.13605000  0.81905000  1
  H  H19  1  0.53550000  0.19234000  0.72671000  1
  H  H20  1  0.43264000  0.18310000  0.66429000  1
  H  H21  1  0.46213000  0.11645000  0.66385000  1
  H  H22  1  0.10675000  0.17581000  0.79675000  1
  H  H23  1  0.07184000  0.16373000  0.72066000  1
  H  H24  1  0.00624000  0.56392000  0.70797000  1
  H  H25  1  0.71574000  0.42848000  0.56507000  1
  H  H26  1  0.31699000  0.65734000  0.88149000  1
  H  H27  1  0.11838000  0.68285000  0.86353000  1
  H  H28  1  0.34167000  0.53409000  0.80725000  1
  H  H29  1  0.24811000  0.48095000  0.81664000  1
  H  H30  1  0.34466000  0.54680000  0.88313000  1
  H  H31  1  0.92939000  0.62102000  0.82537000  1
  H  H32  1  0.90703000  0.55619000  0.83638000  1
  H  H33  1  0.70160000  0.14397000  0.70784000  1
  H  H34  1  0.84931000  0.13668000  0.56508000  1
  H  H35  1  0.56474000  0.22459000  0.88195000  1
  H  H36  1  0.74498000  0.18079000  0.86378000  1
  H  H37  1  0.46546000  0.27329000  0.80719000  1
  H  H38  1  0.56867000  0.33585000  0.81677000  1
  H  H39  1  0.53837000  0.33632000  0.88318000  1
  H  H40  1  0.89517000  0.20382000  0.82509000  1
  H  H41  1  0.92924000  0.27984000  0.83649000  1
  H  H42  1  0.99108000  0.29253000  0.43871000  1
  H  H43  1  0.28283000  0.43511000  0.57251000  1
  H  H44  1  0.68191000  0.11918000  0.34320000  1
  H  H45  1  0.88082000  0.13707000  0.31819000  1
  H  H46  1  0.65648000  0.19213000  0.46529000  1
  H  H47  1  0.74959000  0.18315000  0.51899000  1
  H  H48  1  0.65379000  0.11633000  0.45310000  1
  H  H49  1  0.06994000  0.17384000  0.38022000  1
  H  H50  1  0.09185000  0.16373000  0.44548000  1
  H  H51  1  0.55502000  0.56224000  0.85530000  1
  H  H52  1  0.71186000  0.42707000  0.86261000  1
  H  H53  1  0.33809000  0.65708000  0.77540000  1
  H  H54  1  0.56207000  0.68295000  0.81901000  1
  H  H55  1  0.19128000  0.53438000  0.72665000  1
  H  H56  1  0.23166000  0.48108000  0.66422000  1
  H  H57  1  0.20170000  0.54723000  0.66364000  1
  H  H58  1  0.68998000  0.62102000  0.79674000  1
  H  H59  1  0.64899000  0.55696000  0.72069000  1
  H  H60  1  0.55311000  0.85404000  0.56184000  1
  H  H61  1  0.70999000  0.86234000  0.42737000  1
  H  H62  1  0.33822000  0.77587000  0.65648000  1
  H  H63  1  0.56222000  0.81876000  0.68182000  1
  H  H64  1  0.19107000  0.72675000  0.53421000  1
  H  H65  1  0.23078000  0.66409000  0.48065000  1
  H  H66  1  0.20047000  0.66315000  0.54646000  1
  H  H67  1  0.68967000  0.79355000  0.61992000  1
  H  H68  1  0.64637000  0.71817000  0.55467000  1
  H  H69  1  0.69910000  0.70716000  0.14569000  1
  H  H70  1  0.85015000  0.56466000  0.13640000  1
  H  H71  1  0.56172000  0.88149000  0.22455000  1
  H  H72  1  0.74252000  0.86364000  0.18144000  1
  H  H73  1  0.46289000  0.80761000  0.27331000  1
  H  H74  1  0.56537000  0.81703000  0.33603000  1
  H  H75  1  0.53604000  0.88360000  0.33617000  1
  H  H76  1  0.89346000  0.82493000  0.20505000  1
  H  H77  1  0.92659000  0.83614000  0.28087000  1
  H  H78  1  0.99319000  0.43656000  0.29202000  1
  H  H79  1  0.28464000  0.57075000  0.43489000  1
  H  H80  1  0.68215000  0.34327000  0.11853000  1
  H  H81  1  0.88083000  0.31785000  0.13650000  1
  H  H82  1  0.65780000  0.46683000  0.19313000  1
  H  H83  1  0.75079000  0.51960000  0.18300000  1
  H  H84  1  0.65382000  0.45349000  0.11694000  1
  H  H85  1  0.06981000  0.37970000  0.17407000  1
  H  H86  1  0.09190000  0.44499000  0.16376000  1
  H  H87  1  0.29914000  0.85520000  0.29215000  1
  H  H88  1  0.14999000  0.86475000  0.43506000  1
  H  H89  1  0.43602000  0.77518000  0.11842000  1
  H  H90  1  0.25568000  0.81882000  0.13691000  1
  H  H91  1  0.53547000  0.72619000  0.19305000  1
  H  H92  1  0.43235000  0.66321000  0.18269000  1
  H  H93  1  0.46311000  0.66364000  0.11676000  1
  H  H94  1  0.10457000  0.79446000  0.17442000  1
  H  H95  1  0.07217000  0.71885000  0.16402000  1
  H  H96  1  0.00891000  0.70764000  0.56136000  1
  H  H97  1  0.71752000  0.56472000  0.42721000  1
  H  H98  1  0.31758000  0.88055000  0.65629000  1
  H  H99  1  0.11898000  0.86265000  0.68162000  1
  H  H100  1  0.34229000  0.80756000  0.53383000  1
  H  H101  1  0.24924000  0.81719000  0.48059000  1
  H  H102  1  0.34542000  0.88364000  0.54672000  1
  H  H103  1  0.92966000  0.82593000  0.61983000  1
  H  H104  1  0.90746000  0.83621000  0.55468000  1
  H  H105  1  0.44631000  0.43864000  0.14559000  1
  H  H106  1  0.28646000  0.57218000  0.13653000  1
  H  H107  1  0.66263000  0.34334000  0.22461000  1
  H  H108  1  0.43866000  0.31795000  0.18161000  1
  H  H109  1  0.81001000  0.46591000  0.27333000  1
  H  H110  1  0.77042000  0.51921000  0.33611000  1
  H  H111  1  0.79993000  0.45278000  0.33620000  1
  H  H112  1  0.31125000  0.38027000  0.20520000  1
  H  H113  1  0.35386000  0.44498000  0.28086000  1
  C  C114  1  0.41971000  0.08553000  0.50146000  1
  C  C115  1  0.37345000  0.13629000  0.50410000  1
  C  C116  1  0.39497000  0.16278000  0.46754000  1
  C  C117  1  0.34998000  0.20929000  0.46779000  1
  C  C118  1  0.28087000  0.22952000  0.50598000  1
  C  C119  1  0.26464000  0.20250000  0.54165000  1
  C  C120  1  0.30658000  0.15699000  0.54332000  1
  C  C121  1  0.60931000  0.23471000  0.37346000  1
  C  C122  1  0.49965000  0.21351000  0.36122000  1
  C  C123  1  0.76366000  0.30710000  0.47018000  1
  C  C124  1  0.36885000  0.23633000  0.42635000  1
  C  C125  1  0.56886000  0.28319000  0.46666000  1
  C  C126  1  0.33212000  0.41673000  0.91552000  1
  C  C127  1  0.23541000  0.36864000  0.86462000  1
  C  C128  1  0.23122000  0.30564000  0.83824000  1
  C  C129  1  0.14064000  0.25923000  0.79141000  1
  C  C130  1  0.05123000  0.27676000  0.77033000  1
  C  C131  1  0.06142000  0.33953000  0.79711000  1
  C  C132  1  0.14792000  0.38683000  0.84312000  1
  C  C133  1  0.37492000  0.13846000  0.76558000  1
  C  C134  1  0.28687000  0.14755000  0.78715000  1
  C  C135  1  0.45611000  0.16307000  0.69318000  1
  C  C136  1  0.13365000  0.19096000  0.76569000  1
  C  C137  1  0.28657000  0.18470000  0.71850000  1
  C  C138  1  0.91555000  0.50041000  0.58415000  1
  C  C139  1  0.86677000  0.49757000  0.63217000  1
  C  C140  1  0.92494000  0.53408000  0.69518000  1
  C  C141  1  0.88062000  0.53285000  0.74128000  1
  C  C142  1  0.77410000  0.49381000  0.72348000  1
  C  C143  1  0.72186000  0.45818000  0.66075000  1
  C  C144  1  0.76153000  0.45756000  0.61380000  1
  C  C145  1  0.23475000  0.62713000  0.86145000  1
  C  C146  1  0.13746000  0.63958000  0.85238000  1
  C  C147  1  0.29188000  0.52984000  0.83669000  1
  C  C148  1  0.94138000  0.57471000  0.80957000  1
  C  C149  1  0.10087000  0.53382000  0.81574000  1
  C  C150  1  0.66828000  0.08371000  0.58423000  1
  C  C151  1  0.76526000  0.13468000  0.63218000  1
  C  C152  1  0.77012000  0.16114000  0.69516000  1
  C  C153  1  0.86054000  0.20841000  0.74128000  1
  C  C154  1  0.94923000  0.22968000  0.72350000  1
  C  C155  1  0.93868000  0.20264000  0.66077000  1
  C  C156  1  0.85212000  0.15630000  0.61379000  1
  C  C157  1  0.62670000  0.23451000  0.86168000  1
  C  C158  1  0.71477000  0.21285000  0.85251000  1
  C  C159  1  0.54473000  0.30693000  0.83671000  1
  C  C160  1  0.86786000  0.23459000  0.80951000  1
  C  C161  1  0.71443000  0.28164000  0.81546000  1
  C  C162  1  0.08256000  0.41618000  0.50193000  1
  C  C163  1  0.13128000  0.36796000  0.50439000  1
  C  C164  1  0.07291000  0.30496000  0.46774000  1
  C  C165  1  0.11793000  0.25859000  0.46788000  1
  C  C166  1  0.22521000  0.27639000  0.50603000  1
  C  C167  1  0.27743000  0.33904000  0.54170000  1
  C  C168  1  0.23736000  0.38632000  0.54347000  1
  C  C169  1  0.76415000  0.13876000  0.37341000  1
  C  C170  1  0.86158000  0.14787000  0.36126000  1
  C  C171  1  0.70639000  0.16284000  0.47004000  1
  C  C172  1  0.05745000  0.19016000  0.42638000  1
  C  C173  1  0.89769000  0.18346000  0.46665000  1
  C  C174  1  0.58317000  0.49868000  0.91543000  1
  C  C175  1  0.62895000  0.49591000  0.86453000  1
  C  C176  1  0.60698000  0.53267000  0.83828000  1
  C  C177  1  0.65077000  0.53225000  0.79146000  1
  C  C178  1  0.71895000  0.49354000  0.77031000  1
  C  C179  1  0.73551000  0.45748000  0.79702000  1
  C  C180  1  0.69486000  0.45624000  0.84303000  1
  C  C181  1  0.39064000  0.62705000  0.76542000  1
  C  C182  1  0.50026000  0.63956000  0.78705000  1
  C  C183  1  0.23704000  0.53001000  0.69304000  1
  C  C184  1  0.63211000  0.57478000  0.76569000  1
  C  C185  1  0.43195000  0.53376000  0.71835000  1
  C  C186  1  0.58066000  0.91441000  0.49839000  1
  C  C187  1  0.62699000  0.86370000  0.49591000  1
  C  C188  1  0.60553000  0.83733000  0.53259000  1
  C  C189  1  0.65010000  0.79064000  0.53221000  1
  C  C190  1  0.71885000  0.77016000  0.49386000  1
  C  C191  1  0.73530000  0.79718000  0.45822000  1
  C  C192  1  0.69364000  0.84280000  0.45660000  1
  C  C193  1  0.39040000  0.76527000  0.62636000  1
  C  C194  1  0.50004000  0.78652000  0.63868000  1
  C  C195  1  0.23626000  0.69274000  0.52956000  1
  C  C196  1  0.63111000  0.76372000  0.57373000  1
  C  C197  1  0.43109000  0.71684000  0.53324000  1
  C  C198  1  0.66789000  0.58331000  0.08457000  1
  C  C199  1  0.76453000  0.63151000  0.13543000  1
  C  C200  1  0.76831000  0.69450000  0.16228000  1
  C  C201  1  0.85888000  0.74087000  0.20919000  1
  C  C202  1  0.94869000  0.72327000  0.22982000  1
  C  C203  1  0.93904000  0.66063000  0.20250000  1
  C  C204  1  0.85250000  0.61339000  0.15641000  1
  C  C205  1  0.62409000  0.86143000  0.23471000  1
  C  C206  1  0.71234000  0.85228000  0.21336000  1
  C  C207  1  0.54212000  0.83696000  0.30700000  1
  C  C208  1  0.86560000  0.80919000  0.23552000  1
  C  C209  1  0.71193000  0.81534000  0.28215000  1
  C  C210  1  0.08410000  0.49945000  0.41571000  1
  C  C211  1  0.13298000  0.50237000  0.36770000  1
  C  C212  1  0.07458000  0.46620000  0.30471000  1
  C  C213  1  0.11882000  0.46748000  0.25860000  1
  C  C214  1  0.22566000  0.50624000  0.27652000  1
  C  C215  1  0.27800000  0.54132000  0.33913000  1
  C  C216  1  0.23865000  0.54202000  0.38618000  1
  C  C217  1  0.76437000  0.37351000  0.13859000  1
  C  C218  1  0.86172000  0.36112000  0.14769000  1
  C  C219  1  0.70708000  0.47077000  0.16335000  1
  C  C220  1  0.05774000  0.42604000  0.19031000  1
  C  C221  1  0.89813000  0.46687000  0.18433000  1
  C  C222  1  0.33195000  0.91646000  0.41569000  1
  C  C223  1  0.23474000  0.86565000  0.36785000  1
  C  C224  1  0.23025000  0.83853000  0.30489000  1
  C  C225  1  0.13984000  0.79115000  0.25887000  1
  C  C226  1  0.05071000  0.77050000  0.27677000  1
  C  C227  1  0.06091000  0.79825000  0.33941000  1
  C  C228  1  0.14744000  0.84467000  0.38636000  1
  C  C229  1  0.37416000  0.76513000  0.13869000  1
  C  C230  1  0.28603000  0.78669000  0.14798000  1
  C  C231  1  0.45634000  0.69258000  0.16323000  1
  C  C232  1  0.13283000  0.76434000  0.19064000  1
  C  C233  1  0.28657000  0.71759000  0.18463000  1
  C  C234  1  0.91832000  0.58412000  0.49844000  1
  C  C235  1  0.86914000  0.63201000  0.49564000  1
  C  C236  1  0.92711000  0.69506000  0.53222000  1
  C  C237  1  0.88170000  0.74126000  0.53203000  1
  C  C238  1  0.77442000  0.72327000  0.49380000  1
  C  C239  1  0.72249000  0.66059000  0.45805000  1
  C  C240  1  0.76309000  0.61350000  0.45644000  1
  C  C241  1  0.23528000  0.86100000  0.62620000  1
  C  C242  1  0.13799000  0.85188000  0.63849000  1
  C  C243  1  0.29260000  0.83710000  0.52947000  1
  C  C244  1  0.94198000  0.80971000  0.57365000  1
  C  C245  1  0.10140000  0.81637000  0.53310000  1
  C  C246  1  0.41664000  0.50125000  0.08451000  1
  C  C247  1  0.37077000  0.50403000  0.13538000  1
  C  C248  1  0.39367000  0.46785000  0.16221000  1
  C  C249  1  0.34998000  0.46836000  0.20909000  1
  C  C250  1  0.28082000  0.50658000  0.22964000  1
  C  C251  1  0.26353000  0.54204000  0.20243000  1
  C  C252  1  0.30394000  0.54330000  0.15638000  1
  C  C253  1  0.61036000  0.37351000  0.23482000  1
  C  C254  1  0.50070000  0.36125000  0.21347000  1
  C  C255  1  0.76456000  0.47025000  0.30706000  1
  C  C256  1  0.36959000  0.42648000  0.23555000  1
  C  C257  1  0.56984000  0.46700000  0.28230000  1
  N  N258  1  0.47763000  0.24335000  0.41817000  1
  N  N259  1  0.64858000  0.27615000  0.43706000  1
  N  N260  1  0.23550000  0.17579000  0.75834000  1
  N  N261  1  0.37279000  0.16140000  0.72472000  1
  N  N262  1  0.05834000  0.58254000  0.82458000  1
  N  N263  1  0.21024000  0.56333000  0.83877000  1
  N  N264  1  0.76583000  0.24181000  0.82441000  1
  N  N265  1  0.62834000  0.27542000  0.83875000  1
  N  N266  1  0.94050000  0.17498000  0.41822000  1
  N  N267  1  0.78839000  0.16084000  0.43699000  1
  N  N268  1  0.52285000  0.58253000  0.75823000  1
  N  N269  1  0.35193000  0.56326000  0.72455000  1
  N  N270  1  0.52223000  0.75672000  0.58178000  1
  N  N271  1  0.35127000  0.72385000  0.56276000  1
  N  N272  1  0.76344000  0.82415000  0.24241000  1
  N  N273  1  0.62578000  0.83860000  0.27565000  1
  N  N274  1  0.94077000  0.41819000  0.17551000  1
  N  N275  1  0.78878000  0.43731000  0.16126000  1
  N  N276  1  0.23504000  0.75746000  0.17589000  1
  N  N277  1  0.37262000  0.72403000  0.16139000  1
  N  N278  1  0.05887000  0.82485000  0.58162000  1
  N  N279  1  0.21075000  0.83897000  0.56261000  1
  N  N280  1  0.47862000  0.41842000  0.24253000  1
  N  N281  1  0.64953000  0.43727000  0.27577000  1
  O  O282  1  0.47552000  0.06574000  0.46308000  1
  O  O283  1  0.39922000  0.06540000  0.53783000  1
  O  O284  1  0.40712000  0.39769000  0.93531000  1
  O  O285  1  0.33287000  0.47345000  0.93556000  1
  O  O286  1  0.00961000  0.53902000  0.60282000  1
  O  O287  1  0.85961000  0.46383000  0.52750000  1
  O  O288  1  0.59275000  0.06413000  0.60300000  1
  O  O289  1  0.66790000  0.06343000  0.52763000  1
  O  O290  1  0.98877000  0.39757000  0.46321000  1
  O  O291  1  0.13884000  0.47280000  0.53864000  1
  O  O292  1  0.52791000  0.53752000  0.93525000  1
  O  O293  1  0.60258000  0.46205000  0.93549000  1
  O  O294  1  0.52486000  0.93425000  0.53675000  1
  O  O295  1  0.60086000  0.93441000  0.46188000  1
  O  O296  1  0.59283000  0.60231000  0.06468000  1
  O  O297  1  0.66717000  0.52662000  0.06461000  1
  O  O298  1  0.98996000  0.46100000  0.39703000  1
  O  O299  1  0.14022000  0.53581000  0.47234000  1
  O  O300  1  0.40769000  0.93585000  0.39691000  1
  O  O301  1  0.33228000  0.93675000  0.47228000  1
  O  O302  1  0.01252000  0.60277000  0.53691000  1
  O  O303  1  0.86178000  0.52750000  0.46210000  1
  O  O304  1  0.47171000  0.46236000  0.06465000  1
  O  O305  1  0.39746000  0.53801000  0.06456000  1
