# generated using pymatgen
data_H11C19N4
_symmetry_space_group_name_H-M   'P 1'
_cell_length_a   20.06935000
_cell_length_b   20.06935000
_cell_length_c   37.21090000
_cell_angle_alpha   90.00000000
_cell_angle_beta   90.00000000
_cell_angle_gamma   120.00000000
_symmetry_Int_Tables_number   1
_chemical_formula_structural   H11C19N4
_chemical_formula_sum   'H132 C228 N48'
_cell_volume   12979.78263748
_cell_formula_units_Z   12
loop_
 _symmetry_equiv_pos_site_id
 _symmetry_equiv_pos_as_xyz
  1  'x, y, z'
loop_
 _atom_site_type_symbol
 _atom_site_label
 _atom_site_symmetry_multiplicity
 _atom_site_fract_x
 _atom_site_fract_y
 _atom_site_fract_z
 _atom_site_occupancy
  C  1  1  0.89024550  0.15988650  0.93752100  1
  C  2  1  0.95278500  0.15136000  0.94982600  1
  C  3  1  0.99385000  0.19092300  0.98106100  1
  C  4  1  0.97811450  0.24496550  0.99720850  1
  C  5  1  0.91991950  0.25813050  0.98393900  1
  C  6  1  0.87168800  0.21113300  0.95563500  1
  C  7  1  0.97488800  0.10602500  0.92956300  1
  C  8  1  0.80803150  0.21685750  0.94357800  1
  C  10  1  0.85123200  0.12309900  0.90507500  1
  C  11  1  0.87904150  0.08341650  0.88346000  1
  C  12  1  0.84676000  0.05591600  0.84902200  1
  C  13  1  0.78274650  0.06138150  0.83815600  1
  C  14  1  0.75224000  0.09720700  0.85980800  1
  C  15  1  0.78810750  0.13086050  0.89293800  1
  C  16  1  0.94041550  0.07491750  0.89643500  1
  C  18  1  0.76532300  0.17537500  0.91347900  1
  C  27  1  0.31526100  0.15803300  0.27077500  1
  C  28  1  0.24380150  0.09533850  0.28261000  1
  C  29  1  0.24137750  0.05325350  0.31360100  1
  C  30  1  0.31073100  0.06844900  0.33003200  1
  C  31  1  0.38253400  0.12741200  0.31749300  1
  C  32  1  0.38454450  0.17616750  0.28925900  1
  C  33  1  0.17685200  0.07396000  0.26208700  1
  C  34  1  0.45427150  0.24007750  0.27763900  1
  C  36  1  0.31844000  0.19761200  0.23838400  1
  C  37  1  0.25156550  0.17002550  0.21635300  1
  C  38  1  0.25738000  0.20242700  0.18186800  1
  C  39  1  0.32699850  0.26684750  0.17155700  1
  C  40  1  0.39266350  0.29751050  0.19368500  1
  C  41  1  0.38960800  0.26114800  0.22676600  1
  C  42  1  0.18119350  0.10888450  0.22899700  1
  C  44  1  0.45631000  0.28361000  0.24768200  1
  C  53  1  0.88182100  0.72774300  0.60389500  1
  C  54  1  0.89069800  0.79894800  0.61620100  1
  C  55  1  0.85098550  0.80050050  0.64736700  1
  C  56  1  0.79689400  0.73086300  0.66358000  1
  C  57  1  0.78358750  0.65942550  0.65036600  1
  C  58  1  0.83043150  0.65801150  0.62203300  1
  C  59  1  0.93646250  0.86640050  0.59601600  1
  C  60  1  0.82434350  0.58849050  0.60994700  1
  C  62  1  0.91840300  0.72536200  0.57141300  1
  C  63  1  0.95828200  0.79285200  0.54979800  1
  C  64  1  0.98524650  0.78762850  0.51529200  1
  C  65  1  0.97957600  0.71816000  0.50439200  1
  C  66  1  0.94355000  0.65190500  0.52607100  1
  C  67  1  0.91019750  0.65430150  0.55925300  1
  C  68  1  0.96731350  0.86288250  0.56284300  1
  C  70  1  0.86564450  0.58706250  0.57981900  1
  C  79  1  0.09439850  0.80975850  0.93586700  1
  C  80  1  0.02471300  0.80725400  0.94614600  1
  C  81  1  0.99651100  0.78558200  0.98161300  1
  C  82  1  0.03509950  0.76295850  0.00582600  1
  C  83  1  0.10276900  0.76235600  0.99591800  1
  C  84  1  0.13467800  0.78953100  0.96121600  1
  C  85  1  0.98557650  0.82738250  0.92068300  1
  C  86  1  0.20636850  0.79796050  0.95093800  1
  C  88  1  0.12404450  0.83327350  0.90034500  1
  C  89  1  0.08115900  0.84894200  0.87451800  1
  C  90  1  0.10834850  0.86768250  0.83873700  1
  C  91  1  0.17951550  0.87478650  0.82962900  1
  C  92  1  0.22749400  0.86966500  0.85587200  1
  C  93  1  0.19726650  0.84297050  0.89082000  1
  C  94  1  0.01244500  0.84629600  0.88536000  1
  C  96  1  0.23811450  0.82637850  0.91687700  1
  C  105  1  0.76749350  0.95343150  0.27145500  1
  C  106  1  0.83331050  0.02430150  0.28165900  1
  C  107  1  0.83686550  0.05454850  0.31645300  1
  C  108  1  0.77435500  0.01647700  0.34006900  1
  C  109  1  0.70729200  0.94760800  0.33014700  1
  C  110  1  0.70512750  0.91441950  0.29606600  1
  C  111  1  0.89412450  0.06249450  0.25680300  1
  C  112  1  0.64251500  0.84230900  0.28580800  1
  C  114  1  0.76472950  0.92126650  0.23682800  1
  C  115  1  0.82542250  0.96235950  0.21165500  1
  C  116  1  0.82153500  0.93144800  0.17695000  1
  C  117  1  0.75945150  0.85835050  0.16851500  1
  C  118  1  0.70007850  0.81539850  0.19327600  1
  C  119  1  0.70169750  0.84769050  0.22743600  1
  C  120  1  0.88953900  0.03293100  0.22223800  1
  C  122  1  0.64156900  0.80890300  0.25254100  1
  C  131  1  0.22971350  0.28035050  0.60246000  1
  C  132  1  0.23239000  0.21319300  0.61263700  1
  C  133  1  0.25536550  0.20709250  0.64789100  1
  C  134  1  0.27871700  0.26854100  0.67202300  1
  C  135  1  0.27864300  0.33656000  0.66228700  1
  C  136  1  0.25058550  0.34103950  0.62776700  1
  C  137  1  0.21122850  0.15355150  0.58727700  1
  C  138  1  0.24196350  0.40425650  0.61762500  1
  C  140  1  0.20553550  0.28636350  0.56706500  1
  C  141  1  0.18909600  0.22749600  0.54131200  1
  C  142  1  0.17046400  0.23613200  0.50556400  1
  C  143  1  0.16496300  0.30101500  0.49634100  1
  C  144  1  0.16996950  0.35421350  0.52252900  1
  C  145  1  0.19623200  0.35016300  0.55753500  1
  C  146  1  0.19136650  0.16120250  0.55209600  1
  C  148  1  0.21330250  0.40766550  0.58363200  1
  C  157  1  0.06874000  0.60647300  0.01499000  1
  C  158  1  0.99097500  0.55898500  0.02564200  1
  C  159  1  0.94553300  0.48417200  0.01054200  1
  C  160  1  0.97762000  0.45638100  0.98478300  1
  C  161  1  0.05471000  0.50508400  0.97387300  1
  C  162  1  0.09968800  0.57855200  0.98892900  1
  C  164  1  0.83849450  0.46419050  0.04700400  1
  C  165  1  0.88381650  0.53806750  0.06196200  1
  C  170  1  0.75781650  0.41344550  0.05790200  1
  C  174  1  0.11958600  0.67445500  0.03248500  1
  C  176  1  0.94016850  0.38207050  0.97147800  1
  C  178  1  0.58393150  0.97985950  0.34901800  1
  C  179  1  0.61309800  0.05756200  0.35942100  1
  C  180  1  0.58267450  0.10191550  0.34414300  1
  C  181  1  0.52265600  0.06871000  0.31848200  1
  C  182  1  0.49510250  0.99153650  0.30792300  1
  C  183  1  0.52462050  0.94761650  0.32319000  1
  C  185  1  0.66872150  0.20989150  0.38040200  1
  C  186  1  0.69823750  0.16558350  0.39555800  1
  C  191  1  0.69760600  0.29049900  0.39110800  1
  C  195  1  0.60127950  0.93032250  0.36740500  1
  C  197  1  0.48458700  0.10499500  0.30516000  1
  C  199  1  0.43465800  0.45909400  0.68088600  1
  C  200  1  0.48262350  0.42956650  0.69182100  1
  C  201  1  0.55757850  0.45931850  0.67683400  1
  C  202  1  0.58503900  0.51885800  0.65090900  1
  C  203  1  0.53591950  0.54657050  0.63975600  1
  C  204  1  0.46230850  0.51769350  0.65469650  1
  C  206  1  0.57825950  0.37323750  0.71369700  1
  C  207  1  0.50424050  0.34431450  0.72854700  1
  C  212  1  0.62941350  0.34397350  0.72485700  1
  C  216  1  0.36648700  0.44186700  0.69821500  1
  C  218  1  0.65951650  0.55644050  0.63781000  1
  C  220  1  0.52597150  0.46577750  0.14955200  1
  C  221  1  0.48747750  0.50082250  0.13308100  1
  C  222  1  0.51852550  0.58170250  0.13541900  1
  C  223  1  0.58788400  0.62754400  0.15447600  1
  C  224  1  0.62737450  0.59189150  0.16924800  1
  C  225  1  0.59635450  0.51195450  0.16734600  1
  C  227  1  0.40981500  0.56974900  0.10263900  1
  C  228  1  0.37941450  0.48961550  0.10051000  1
  C  233  1  0.36911600  0.60698000  0.08701700  1
  C  237  1  0.48774900  0.38750100  0.15436800  1
  C  239  1  0.62022300  0.70645900  0.15696400  1
  C  241  1  0.58464600  0.07196800  0.81737300  1
  C  242  1  0.53718750  0.99681650  0.80362400  1
  C  243  1  0.45617200  0.95872400  0.80870900  1
  C  244  1  0.42292550  0.99614650  0.82766200  1
  C  245  1  0.47089350  0.07224950  0.84004100  1
  C  246  1  0.55085200  0.10948800  0.83535900  1
  C  248  1  0.44372500  0.84803000  0.77765800  1
  C  249  1  0.52411950  0.88608250  0.77298800  1
  C  254  1  0.39371350  0.76917450  0.76422550  1
  C  258  1  0.66270200  0.10193100  0.81955200  1
  C  260  1  0.34495750  0.96425550  0.83291900  1
  C  262  1  0.96962150  0.51111750  0.48333100  1
  C  263  1  0.04489650  0.54083050  0.46931600  1
  C  264  1  0.08474100  0.49944700  0.47376400  1
  C  265  1  0.04893000  0.42844800  0.49243300  1
  C  266  1  0.97291150  0.39846650  0.50528200  1
  C  267  1  0.93393950  0.43961950  0.50117500  1
  C  269  1  0.19365150  0.59979750  0.44260800  1
  C  270  1  0.15387500  0.64061500  0.43855800  1
  C  275  1  0.27251300  0.63068600  0.42876400  1
  C  279  1  0.93763950  0.55737850  0.48575500  1
  C  281  1  0.08121050  0.38248550  0.49598750  1
  C  283  1  0.94286750  0.01034650  0.09800000  1
  C  284  1  0.97606850  0.09127250  0.10218200  1
  C  285  1  0.01861800  0.14222800  0.07373600  1
  C  286  1  0.02783950  0.11308550  0.04069400  1
  C  287  1  0.99458450  0.03287650  0.03640800  1
  C  288  1  0.95255600  0.98250500  0.06453400  1
  C  290  1  0.04475150  0.25069150  0.11073300  1
  C  291  1  0.00277800  0.20026400  0.13890200  1
  C  296  1  0.08087900  0.33479800  0.11451400  1
  C  300  1  0.90056900  0.95711200  0.12475100  1
  C  302  1  0.07705800  0.16181100  0.01457300  1
  C  304  1  0.11631950  0.10686250  0.42979300  1
  C  305  1  0.16171400  0.07110600  0.43382400  1
  C  306  1  0.16774650  0.02721450  0.40537300  1
  C  307  1  0.12865050  0.01861550  0.37261400  1
  C  308  1  0.08285650  0.05328850  0.36871400  1
  C  309  1  0.07708650  0.09693750  0.39683800  1
  C  311  1  0.24940650  0.99908950  0.44182400  1
  C  312  1  0.24283250  0.04199550  0.47009600  1
  C  317  1  0.29630150  0.96171750  0.44521600  1
  C  321  1  0.10968800  0.15187500  0.45642500  1
  C  323  1  0.12770650  0.96976150  0.34620500  1
  C  325  1  0.03168500  0.92127300  0.76326400  1
  C  326  1  0.95059050  0.87728450  0.76791500  1
  C  327  1  0.90009250  0.87217550  0.73991700  1
  C  328  1  0.92998350  0.91077750  0.70699200  1
  C  329  1  0.01041150  0.95496050  0.70244500  1
  C  330  1  0.06036500  0.95986100  0.73012200  1
  C  332  1  0.79103000  0.79270200  0.77720700  1
  C  333  1  0.84109950  0.79832950  0.80501500  1
  C  338  1  0.70679900  0.74759400  0.78133600  1
  C  342  1  0.08391000  0.92775800  0.78955800  1
  C  344  1  0.88186150  0.91294250  0.68103700  1
  C  346  1  0.14293250  0.07887450  0.11137300  1
  C  347  1  0.11031850  0.99798250  0.11313000  1
  C  348  1  0.11539600  0.95651100  0.08323600  1
  C  349  1  0.15294100  0.99618800  0.05140900  1
  C  350  1  0.18611250  0.07685250  0.04992800  1
  C  351  1  0.18157700  0.11765200  0.07962900  1
  C  353  1  0.05111000  0.83951400  0.11753200  1
  C  354  1  0.04569000  0.88102000  0.14681900  1
  C  359  1  0.02193300  0.75610400  0.12000500  1
  C  363  1  0.14876050  0.12081150  0.14178600  1
  C  365  1  0.15995450  0.96060450  0.02360800  1
  C  367  1  0.98124400  0.90533900  0.44519400  1
  C  368  1  0.93190150  0.93672950  0.44691400  1
  C  369  1  0.88483050  0.93056750  0.41705500  1
  C  370  1  0.88757500  0.89325700  0.38526800  1
  C  371  1  0.93617400  0.86133900  0.38380700  1
  C  372  1  0.98202100  0.86692100  0.41347800  1
  C  374  1  0.82986500  0.99256600  0.45146100  1
  C  375  1  0.87728650  0.99905150  0.48071100  1
  C  380  1  0.77418350  0.01991850  0.45404400  1
  C  384  1  0.01666900  0.89913200  0.47580100  1
  C  386  1  0.84428750  0.88501750  0.35757000  1
  C  388  1  0.96854850  0.06010850  0.77862450  1
  C  389  1  0.04954050  0.10796950  0.77984400  1
  C  390  1  0.09017950  0.15455850  0.74981200  1
  C  391  1  0.04957800  0.15257500  0.71833800  1
  C  392  1  0.96888700  0.10511400  0.71731700  1
  C  393  1  0.92890250  0.05995250  0.74718800  1
  C  395  1  0.20800850  0.20775750  0.78349900  1
  C  396  1  0.16735300  0.16061200  0.81287300  1
  C  401  1  0.29134450  0.26251250  0.78568600  1
  C  405  1  0.92748450  0.02607250  0.80953200  1
  C  407  1  0.08412900  0.19561800  0.69052100  1
  H  9  1  0.01569700  0.28149600  0.01621200  1
  H  17  1  0.75944850  0.04113150  0.81324600  1
  H  19  1  0.96010250  0.04458350  0.88238700  1
  H  20  1  0.01929650  0.09833050  0.93767400  1
  H  21  1  0.72092950  0.18297050  0.90521900  1
  H  22  1  0.79195500  0.25144700  0.95666700  1
  H  35  1  0.30910850  0.03027050  0.34884400  1
  H  43  1  0.33057500  0.29060200  0.14670100  1
  H  45  1  0.13152100  0.08960300  0.21473500  1
  H  46  1  0.12444200  0.02960600  0.26990200  1
  H  47  1  0.50846500  0.32819900  0.23972000  1
  H  48  1  0.50459000  0.25574800  0.29097100  1
  H  61  1  0.76062350  0.73217450  0.68265200  1
  H  69  1  0.99985050  0.71509450  0.47949100  1
  H  71  1  0.99775400  0.91287100  0.54879900  1
  H  72  1  0.94427700  0.91856100  0.60410000  1
  H  73  1  0.85757900  0.53493900  0.57148600  1
  H  74  1  0.78959350  0.53785750  0.62303000  1
  H  87  1  0.01416550  0.74755950  0.03138000  1
  H  95  1  0.19941150  0.88964850  0.80383600  1
  H  97  1  0.98161700  0.85966100  0.86786700  1
  H  98  1  0.93570350  0.82665850  0.92726100  1
  H  99  1  0.29025800  0.83161100  0.91080200  1
  H  100  1  0.23746150  0.78488550  0.96844300  1
  H  113  1  0.77812300  0.03863400  0.36523700  1
  H  121  1  0.75816050  0.83537450  0.14380100  1
  H  123  1  0.93518350  0.06268350  0.20530200  1
  H  124  1  0.94231300  0.11326000  0.26335200  1
  H  125  1  0.59487900  0.75660700  0.24644300  1
  H  126  1  0.59680750  0.81225650  0.30268200  1
  H  139  1  0.29481950  0.26322250  0.69745900  1
  H  147  1  0.15139350  0.30652150  0.47037800  1
  H  149  1  0.17752050  0.11687450  0.53460700  1
  H  150  1  0.21191200  0.10436300  0.59381000  1
  H  151  1  0.20821500  0.45469300  0.57763700  1
  H  152  1  0.25547150  0.44853850  0.63512300  1
  H  167  1  0.86217550  0.55887050  0.08096200  1
  H  168  1  0.15627100  0.61043100  0.98141800  1
  H  169  1  0.08034850  0.48620450  0.95589100  1
  H  171  1  0.73232900  0.35875300  0.04349500  1
  H  172  1  0.72414850  0.44122250  0.05206500  1
  H  173  1  0.75499500  0.40172900  0.08667000  1
  H  175  1  0.10306800  0.70867000  0.04405900  1
  H  177  1  0.94257150  0.37498850  0.94509500  1
  H  188  1  0.74065450  0.18793150  0.41456400  1
  H  189  1  0.50032700  0.89085700  0.31605200  1
  H  190  1  0.45032300  0.96500200  0.29013000  1
  H  192  1  0.66776750  0.31516550  0.37658300  1
  H  193  1  0.75899950  0.32480750  0.38525800  1
  H  194  1  0.68860100  0.29344100  0.41985500  1
  H  196  1  0.65279400  0.94484500  0.37805000  1
  H  198  1  0.47466150  0.10155950  0.27878100  1
  H  209  1  0.48363100  0.30208600  0.74765100  1
  H  210  1  0.43011650  0.54193450  0.64699300  1
  H  211  1  0.55457950  0.59091650  0.62168600  1
  H  213  1  0.68415200  0.37335900  0.71049600  1
  H  214  1  0.60206200  0.28249200  0.71917400  1
  H  215  1  0.64096550  0.35323250  0.75362400  1
  H  217  1  0.33346750  0.39125250  0.71016000  1
  H  219  1  0.66666933  0.56601533  0.61142300  1
  H  230  1  0.32821400  0.45466100  0.08798200  1
  H  231  1  0.62412550  0.48761550  0.18018300  1
  H  232  1  0.67842050  0.62360050  0.18259700  1
  H  234  1  0.40109650  0.66904650  0.09150000  1
  H  235  1  0.31243500  0.58363600  0.09936000  1
  H  236  1  0.36214100  0.59638100  0.05812200  1
  H  238  1  0.47049650  0.35337350  0.13288500  1
  H  240  1  0.62716400  0.73610900  0.13450300  1
  H  251  1  0.55027550  0.86032550  0.76008900  1
  H  252  1  0.58425900  0.16291500  0.84643300  1
  H  253  1  0.44834550  0.10074650  0.85375200  1
  H  255  1  0.33343400  0.74901600  0.77046500  1
  H  256  1  0.40998950  0.73013050  0.77668300  1
  H  257  1  0.39974000  0.76778400  0.73512600  1
  H  259  1  0.69328650  0.11123850  0.79720000  1
  H  261  1  0.32269800  0.99755500  0.82683100  1
  H  272  1  0.17832650  0.69271450  0.42585300  1
  H  273  1  0.88045150  0.41815750  0.51240100  1
  H  274  1  0.94550600  0.34687500  0.51861400  1
  H  276  1  0.29420100  0.59161500  0.43452300  1
  H  277  1  0.31078800  0.68610600  0.44133500  1
  H  278  1  0.27313950  0.63852650  0.39971300  1
  H  280  1  0.92828650  0.57901050  0.46354400  1
  H  282  1  0.04995500  0.32903800  0.48657800  1
  H  293  1  0.99619000  0.22020700  0.16314000  1
  H  294  1  0.92997300  0.92469100  0.06035300  1
  H  295  1  0.00219650  0.01041450  0.01306500  1
  H  297  1  0.11052350  0.36406150  0.08984100  1
  H  298  1  0.12267150  0.35472150  0.13639500  1
  H  299  1  0.03697250  0.35015150  0.12042100  1
  H  301  1  0.88963950  0.90314950  0.12230800  1
  H  303  1  0.13127200  0.17379800  0.01525000  1
  H  314  1  0.26990800  0.04832000  0.49415600  1
  H  315  1  0.04329750  0.12124950  0.39293600  1
  H  316  1  0.05236300  0.04615700  0.34556200  1
  H  318  1  0.29461750  0.93156450  0.42050800  1
  H  319  1  0.27449150  0.92017550  0.46719600  1
  H  320  1  0.35600050  0.00495850  0.45075200  1
  H  322  1  0.06472500  0.16020200  0.45623700  1
  H  324  1  0.08514000  0.91568900  0.34659200  1
  H  335  1  0.82082300  0.77171800  0.82920900  1
  H  336  1  0.11841950  0.99270050  0.72578400  1
  H  337  1  0.03340000  0.98508600  0.67916600  1
  H  339  1  0.67779900  0.74980700  0.75691800  1
  H  340  1  0.68886650  0.77054550  0.80355200  1
  H  341  1  0.68910100  0.68760100  0.78691800  1
  H  343  1  0.13709450  0.97288450  0.78922700  1
  H  345  1  0.87070350  0.95570350  0.68201500  1
  H  356  1  0.02079050  0.85450050  0.17050900  1
  H  357  1  0.20802600  0.17641300  0.07806500  1
  H  358  1  0.21511850  0.10718050  0.02749700  1
  H  360  1  0.03333200  0.73414900  0.09538300  1
  H  361  1  0.95994950  0.72570950  0.12465900  1
  H  362  1  0.05004000  0.74426400  0.14220800  1
  H  364  1  0.10302850  0.10918150  0.15649900  1
  H  366  1  0.16549850  0.93620950  0.00381000  1
  H  377  1  0.87498050  0.02344150  0.50444100  1
  H  378  1  0.01485850  0.84102650  0.41199200  1
  H  379  1  0.93775150  0.83226550  0.36145600  1
  H  381  1  0.74110850  0.00843850  0.42934200  1
  H  382  1  0.80450550  0.08178650  0.45901000  1
  H  383  1  0.73414700  0.99062100  0.47608100  1
  H  385  1  0.05010950  0.94466050  0.49077800  1
  H  387  1  0.81384050  0.87862050  0.33786600  1
  H  398  1  0.19447400  0.16240000  0.83639400  1
  H  399  1  0.87006150  0.02814750  0.74607000  1
  H  400  1  0.93789200  0.10413700  0.69520700  1
  H  402  1  0.31257250  0.29621150  0.76112000  1
  H  403  1  0.32228800  0.23133000  0.78990900  1
  H  404  1  0.30331150  0.30213350  0.80804700  1
  H  406  1  0.93784350  0.99093250  0.82416600  1
  H  408  1  0.10756500  0.22584800  0.67068500  1
  N  23  1  0.93080950  0.32743150  0.99277200  1
  N  24  1  0.05956250  0.19419750  0.98951400  1
  N  25  1  0.68673500  0.09271400  0.85008600  1
  N  26  1  0.88768100  0.05476600  0.82163100  1
  N  49  1  0.44061450  0.11617950  0.32651700  1
  N  50  1  0.17837350  0.98748150  0.32149400  1
  N  51  1  0.45182050  0.36487550  0.18442100  1
  N  52  1  0.21693750  0.16139150  0.15413400  1
  N  75  1  0.71423250  0.60113150  0.65920400  1
  N  76  1  0.84865050  0.86341450  0.65591500  1
  N  77  1  0.94783750  0.59086050  0.51628900  1
  N  78  1  0.98793050  0.83074850  0.48803900  1
  N  101  1  0.14361850  0.74449450  0.02198800  1
  N  102  1  0.93741250  0.78577650  0.99274700  1
  N  103  1  0.30229000  0.89870300  0.84835900  1
  N  104  1  0.06633250  0.87456050  0.81306300  1
  N  127  1  0.64700900  0.90631700  0.35554900  1
  N  128  1  0.89489750  0.11482450  0.32759200  1
  N  129  1  0.65318250  0.74118550  0.18633500  1
  N  130  1  0.86944700  0.97367400  0.15088000  1
  N  153  1  0.29621600  0.39479900  0.68856400  1
  N  154  1  0.25562150  0.14795450  0.65892000  1
  N  155  1  0.14170900  0.40081600  0.51508000  1
  N  156  1  0.16317650  0.18728450  0.47982700  1
  N  163  1  0.87158450  0.44045050  0.02203300  1
  N  166  1  0.95771550  0.58205950  0.05090700  1
  N  184  1  0.61194650  0.17586650  0.35545500  1
  N  187  1  0.66930600  0.09171000  0.38468500  1
  N  205  1  0.60171450  0.42975150  0.68857200  1
  N  208  1  0.45984300  0.37356500  0.71723600  1
  N  226  1  0.47786500  0.61206300  0.12012600  1
  N  229  1  0.41891400  0.45858000  0.11583100  1
  N  247  1  0.41341050  0.88606550  0.79538350  1
  N  250  1  0.56735550  0.95827150  0.78614300  1
  N  268  1  0.15729650  0.53103750  0.46009900  1
  N  271  1  0.08176050  0.60989350  0.45204200  1
  N  289  1  0.05096700  0.21926600  0.07949500  1
  N  292  1  0.97083100  0.12358900  0.13346600  1
  N  310  1  0.21117800  0.99337400  0.41083400  1
  N  313  1  0.19961300  0.07565700  0.46490400  1
  N  331  1  0.82292100  0.83024900  0.74599500  1
  N  334  1  0.91789300  0.84006400  0.79921100  1
  N  352  1  0.08570050  0.87917650  0.08704700  1
  N  355  1  0.07568450  0.95800350  0.14358900  1
  N  373  1  0.83581450  0.95862450  0.42093300  1
  N  376  1  0.92563150  0.97067350  0.47741100  1
  N  394  1  0.16754500  0.20254000  0.75327500  1
  N  397  1  0.09032250  0.11345450  0.81003100  1
