# generated using pymatgen
data_Nd2H18C42(SO6)3
_symmetry_space_group_name_H-M   'P 1'
_cell_length_a   15.43927000
_cell_length_b   18.92938027
_cell_length_c   30.50251000
_cell_angle_alpha   83.43732056
_cell_angle_beta   89.90472000
_cell_angle_gamma   66.11069875
_symmetry_Int_Tables_number   1
_chemical_formula_structural   Nd2H18C42(SO6)3
_chemical_formula_sum   'Nd8 H72 C168 S12 O72'
_cell_volume   8087.63889900
_cell_formula_units_Z   4
loop_
 _symmetry_equiv_pos_site_id
 _symmetry_equiv_pos_as_xyz
  1  'x, y, z'
loop_
 _atom_site_type_symbol
 _atom_site_label
 _atom_site_symmetry_multiplicity
 _atom_site_fract_x
 _atom_site_fract_y
 _atom_site_fract_z
 _atom_site_occupancy
  Nd  Nd0  1  0.25217000  0.41050000  0.64562000  1
  Nd  Nd1  1  0.37109000  0.16987000  0.65555000  1
  Nd  Nd2  1  0.33611000  0.41209000  0.14470000  1
  Nd  Nd3  1  0.45644000  0.16909000  0.15455000  1
  Nd  Nd4  1  0.66381000  0.58729000  0.85522000  1
  Nd  Nd5  1  0.54389000  0.83047000  0.84551000  1
  Nd  Nd6  1  0.74780000  0.58944000  0.35435000  1
  Nd  Nd7  1  0.62874000  0.82984000  0.34451000  1
  H  H8  1  0.43093000  0.16647000  0.80974000  1
  H  H9  1  0.20947000  0.39535000  0.77393000  1
  H  H10  1  0.19564000  0.41857000  0.85277000  1
  H  H11  1  0.20800000  0.42487000  0.93012000  1
  H  H12  1  0.46849000  0.18515000  0.00740000  1
  H  H13  1  0.25025000  0.41569000  0.01003000  1
  H  H14  1  0.11192000  0.16074000  0.65643000  1
  H  H15  1  0.95184000  0.40841000  0.65041000  1
  H  H16  1  0.96338000  0.13892000  0.65717000  1
  H  H17  1  0.80698000  0.14028000  0.65468000  1
  H  H18  1  0.63609000  0.16410000  0.65257000  1
  H  H19  1  0.55373000  0.41002000  0.65297000  1
  H  H20  1  0.26195000  0.65933000  0.59565000  1
  H  H21  1  0.26649000  0.59737000  0.73621000  1
  H  H22  1  0.31517000  0.70415000  0.75016000  1
  H  H23  1  0.36302000  0.81113000  0.75124000  1
  H  H24  1  0.35897000  0.94224000  0.59840000  1
  H  H25  1  0.39785000  0.92952000  0.73931000  1
  H  H26  1  0.40036000  0.16729000  0.30858000  1
  H  H27  1  0.39542000  0.39617000  0.27365000  1
  H  H28  1  0.38691000  0.41817000  0.35266000  1
  H  H29  1  0.36923000  0.42412000  0.42950000  1
  H  H30  1  0.34512000  0.18512000  0.50717000  1
  H  H31  1  0.33753000  0.41468000  0.50964000  1
  H  H32  1  0.72487000  0.15993000  0.15728000  1
  H  H33  1  0.63838000  0.40763000  0.15169000  1
  H  H34  1  0.89499000  0.13858000  0.15737000  1
  H  H35  1  0.05077000  0.14060000  0.15467000  1
  H  H36  1  0.19704000  0.16566000  0.15214000  1
  H  H37  1  0.03298000  0.41147000  0.15172000  1
  H  H38  1  0.07733000  0.66028000  0.09571000  1
  H  H39  1  0.13608000  0.59837000  0.23612000  1
  H  H40  1  0.98038000  0.70356000  0.25063000  1
  H  H41  1  0.82599000  0.81095000  0.25204000  1
  H  H42  1  0.70016000  0.94261000  0.09929000  1
  H  H43  1  0.67440000  0.93056000  0.24018000  1
  H  H44  1  0.59970000  0.83269000  0.69151000  1
  H  H45  1  0.60450000  0.60386000  0.72642000  1
  H  H46  1  0.61297000  0.58189000  0.64742000  1
  H  H47  1  0.63061000  0.57588000  0.57067000  1
  H  H48  1  0.65503000  0.81451000  0.49278000  1
  H  H49  1  0.66258000  0.58491000  0.49059000  1
  H  H50  1  0.27502000  0.84015000  0.84282000  1
  H  H51  1  0.36179000  0.59251000  0.84832000  1
  H  H52  1  0.10494000  0.86143000  0.84267000  1
  H  H53  1  0.94930000  0.85935000  0.84535000  1
  H  H54  1  0.80307000  0.83428000  0.84790000  1
  H  H55  1  0.96708000  0.58849000  0.84833000  1
  H  H56  1  0.92284000  0.33961000  0.90415000  1
  H  H57  1  0.86426000  0.40124000  0.76371000  1
  H  H58  1  0.01999000  0.29590000  0.74930000  1
  H  H59  1  0.17509000  0.18825000  0.74813000  1
  H  H60  1  0.29947000  0.05741000  0.90113000  1
  H  H61  1  0.32675000  0.06887000  0.76028000  1
  H  H62  1  0.56923000  0.83363000  0.19014000  1
  H  H63  1  0.79043000  0.60470000  0.22613000  1
  H  H64  1  0.80446000  0.58130000  0.14733000  1
  H  H65  1  0.79281000  0.57491000  0.07023000  1
  H  H66  1  0.53181000  0.81352000  0.99233000  1
  H  H67  1  0.75074000  0.58312000  0.99038000  1
  H  H68  1  0.88814000  0.83949000  0.34353000  1
  H  H69  1  0.04791000  0.59175000  0.34953000  1
  H  H70  1  0.03682000  0.86110000  0.34281000  1
  H  H71  1  0.19325000  0.85959000  0.34534000  1
  H  H72  1  0.36420000  0.83563000  0.34748000  1
  H  H73  1  0.44611000  0.58974000  0.34701000  1
  H  H74  1  0.73797000  0.34043000  0.40442000  1
  H  H75  1  0.73339000  0.40245000  0.26380000  1
  H  H76  1  0.68488000  0.29561000  0.24989000  1
  H  H77  1  0.63743000  0.18817000  0.24884000  1
  H  H78  1  0.64058000  0.05785000  0.40182000  1
  H  H79  1  0.60227000  0.06998000  0.26090000  1
  C  C80  1  0.32802000  0.26675000  0.74004000  1
  C  C81  1  0.31981000  0.27967000  0.78723000  1
  C  C82  1  0.37965000  0.22081000  0.81945000  1
  C  C83  1  0.25379000  0.35030000  0.79955000  1
  C  C84  1  0.37209000  0.23565000  0.86296000  1
  C  C85  1  0.24602000  0.36341000  0.84372000  1
  C  C86  1  0.30675000  0.30603000  0.87594000  1
  C  C87  1  0.31602000  0.31053000  0.92329000  1
  C  C88  1  0.38895000  0.24389000  0.94570000  1
  C  C89  1  0.26420000  0.37259000  0.94671000  1
  C  C90  1  0.41207000  0.23687000  0.99029000  1
  C  C91  1  0.28798000  0.36756000  0.99133000  1
  C  C92  1  0.36127000  0.30056000  0.01315000  1
  C  C93  1  0.38591000  0.29750000  0.06049000  1
  C  C94  1  0.13191000  0.29546000  0.65234000  1
  C  C95  1  0.04097000  0.28516000  0.65354000  1
  C  C96  1  0.04334000  0.20973000  0.65572000  1
  C  C97  1  0.95362000  0.35010000  0.65235000  1
  C  C98  1  0.96010000  0.19760000  0.65615000  1
  C  C99  1  0.87176000  0.33672000  0.65371000  1
  C  C100  1  0.87276000  0.26178000  0.65520000  1
  C  C101  1  0.77743000  0.26230000  0.65517000  1
  C  C102  1  0.75268000  0.19900000  0.65457000  1
  C  C103  1  0.70483000  0.33738000  0.65478000  1
  C  C104  1  0.65707000  0.21225000  0.65334000  1
  C  C105  1  0.60937000  0.35172000  0.65357000  1
  C  C106  1  0.58546000  0.28763000  0.65275000  1
  C  C107  1  0.48397000  0.29905000  0.65093000  1
  C  C108  1  0.23717000  0.55639000  0.65784000  1
  C  C109  1  0.26245000  0.62207000  0.66542000  1
  C  C110  1  0.27398000  0.66968000  0.62900000  1
  C  C111  1  0.27712000  0.63488000  0.70882000  1
  C  C112  1  0.30045000  0.72879000  0.63732000  1
  C  C113  1  0.30430000  0.69452000  0.71648000  1
  C  C114  1  0.31631000  0.74231000  0.68046000  1
  C  C115  1  0.34156000  0.80922000  0.68115000  1
  C  C116  1  0.34281000  0.84635000  0.63852000  1
  C  C117  1  0.36157000  0.83921000  0.71789000  1
  C  C118  1  0.35922000  0.91328000  0.63133000  1
  C  C119  1  0.38032000  0.90579000  0.71141000  1
  C  C120  1  0.37748000  0.94340000  0.66863000  1
  C  C121  1  0.39056000  0.01726000  0.66231000  1
  C  C122  1  0.40380000  0.26878000  0.23908000  1
  C  C123  1  0.39956000  0.28047000  0.28653000  1
  C  C124  1  0.39793000  0.22136000  0.31861000  1
  C  C125  1  0.39573000  0.35086000  0.29910000  1
  C  C126  1  0.39078000  0.23567000  0.36228000  1
  C  C127  1  0.39080000  0.36333000  0.34335000  1
  C  C128  1  0.38678000  0.30580000  0.37542000  1
  C  C129  1  0.37333000  0.31021000  0.42280000  1
  C  C130  1  0.36587000  0.24387000  0.44526000  1
  C  C131  1  0.36444000  0.37204000  0.44619000  1
  C  C132  1  0.35033000  0.23677000  0.48998000  1
  C  C133  1  0.34645000  0.36685000  0.49093000  1
  C  C134  1  0.33943000  0.30004000  0.51295000  1
  C  C135  1  0.31970000  0.29711000  0.56066000  1
  C  C136  1  0.57072000  0.29489000  0.15343000  1
  C  C137  1  0.67201000  0.28435000  0.15453000  1
  C  C138  1  0.74466000  0.20904000  0.15643000  1
  C  C139  1  0.69461000  0.34942000  0.15329000  1
  C  C140  1  0.83990000  0.19717000  0.15657000  1
  C  C141  1  0.78964000  0.33629000  0.15424000  1
  C  C142  1  0.86330000  0.26150000  0.15546000  1
  C  C143  1  0.95795000  0.26250000  0.15506000  1
  C  C144  1  0.04596000  0.19960000  0.15438000  1
  C  C145  1  0.95541000  0.33782000  0.15441000  1
  C  C146  1  0.12799000  0.21354000  0.15286000  1
  C  C147  1  0.03612000  0.35285000  0.15268000  1
  C  C148  1  0.12409000  0.28921000  0.15191000  1
  C  C149  1  0.21371000  0.30158000  0.14980000  1
  C  C150  1  0.20661000  0.55833000  0.15769000  1
  C  C151  1  0.11513000  0.62306000  0.16544000  1
  C  C152  1  0.05548000  0.67014000  0.12921000  1
  C  C153  1  0.08762000  0.63547000  0.20890000  1
  C  C154  1  0.96992000  0.72848000  0.13787000  1
  C  C155  1  0.00076000  0.69431000  0.21688000  1
  C  C156  1  0.94084000  0.74200000  0.18108000  1
  C  C157  1  0.84942000  0.80919000  0.18196000  1
  C  C158  1  0.81160000  0.84655000  0.13938000  1
  C  C159  1  0.79969000  0.83938000  0.21874000  1
  C  C160  1  0.72894000  0.91357000  0.13216000  1
  C  C161  1  0.71525000  0.90636000  0.21225000  1
  C  C162  1  0.68088000  0.94393000  0.16943000  1
  C  C163  1  0.59424000  0.01762000  0.16289000  1
  C  C164  1  0.59605000  0.73131000  0.76103000  1
  C  C165  1  0.60039000  0.71957000  0.71357000  1
  C  C166  1  0.60206000  0.77867000  0.68146000  1
  C  C167  1  0.60418000  0.64920000  0.70098000  1
  C  C168  1  0.60925000  0.76437000  0.63777000  1
  C  C169  1  0.60912000  0.63673000  0.65672000  1
  C  C170  1  0.61317000  0.69425000  0.62464000  1
  C  C171  1  0.62662000  0.68974000  0.57726000  1
  C  C172  1  0.63413000  0.75602000  0.55477000  1
  C  C173  1  0.63551000  0.62786000  0.55391000  1
  C  C174  1  0.64978000  0.76296000  0.51006000  1
  C  C175  1  0.65366000  0.63288000  0.50919000  1
  C  C176  1  0.66080000  0.69963000  0.48713000  1
  C  C177  1  0.68053000  0.70271000  0.43940000  1
  C  C178  1  0.42922000  0.70527000  0.84655000  1
  C  C179  1  0.32799000  0.71576000  0.84546000  1
  C  C180  1  0.25528000  0.79103000  0.84360000  1
  C  C181  1  0.30546000  0.65066000  0.84670000  1
  C  C182  1  0.16006000  0.80285000  0.84344000  1
  C  C183  1  0.21045000  0.66370000  0.84578000  1
  C  C184  1  0.13673000  0.73848000  0.84454000  1
  C  C185  1  0.04209000  0.73746000  0.84497000  1
  C  C186  1  0.95409000  0.80035000  0.84562000  1
  C  C187  1  0.04466000  0.66214000  0.84562000  1
  C  C188  1  0.87207000  0.78638000  0.84715000  1
  C  C189  1  0.96395000  0.64710000  0.84734000  1
  C  C190  1  0.87596000  0.71069000  0.84814000  1
  C  C191  1  0.78633000  0.69827000  0.85026000  1
  C  C192  1  0.79359000  0.44123000  0.84223000  1
  C  C193  1  0.88511000  0.37667000  0.83440000  1
  C  C194  1  0.94471000  0.32967000  0.87067000  1
  C  C195  1  0.91269000  0.36418000  0.79096000  1
  C  C196  1  0.03030000  0.27131000  0.86205000  1
  C  C197  1  0.99957000  0.30525000  0.78303000  1
  C  C198  1  0.05946000  0.25760000  0.81888000  1
  C  C199  1  0.15102000  0.19036000  0.81813000  1
  C  C200  1  0.18873000  0.15310000  0.86075000  1
  C  C201  1  0.20114000  0.15997000  0.78149000  1
  C  C202  1  0.27139000  0.08602000  0.86811000  1
  C  C203  1  0.28572000  0.09309000  0.78814000  1
  C  C204  1  0.32014000  0.05565000  0.83096000  1
  C  C205  1  0.40719000  0.98216000  0.83747000  1
  C  C206  1  0.67181000  0.73340000  0.25991000  1
  C  C207  1  0.68016000  0.72043000  0.21272000  1
  C  C208  1  0.62048000  0.77926000  0.18043000  1
  C  C209  1  0.74620000  0.64973000  0.20048000  1
  C  C210  1  0.62818000  0.76433000  0.13692000  1
  C  C211  1  0.75413000  0.63654000  0.15633000  1
  C  C212  1  0.69358000  0.69390000  0.12404000  1
  C  C213  1  0.68446000  0.68921000  0.07672000  1
  C  C214  1  0.61144000  0.75566000  0.05416000  1
  C  C215  1  0.73649000  0.62695000  0.05350000  1
  C  C216  1  0.58829000  0.76202000  0.00961000  1
  C  C217  1  0.71277000  0.63139000  0.00894000  1
  C  C218  1  0.63927000  0.69802000  0.98695000  1
  C  C219  1  0.61514000  0.70025000  0.93958000  1
  C  C220  1  0.86788000  0.70482000  0.34765000  1
  C  C221  1  0.95887000  0.71504000  0.34646000  1
  C  C222  1  0.95665000  0.79042000  0.34427000  1
  C  C223  1  0.04617000  0.65005000  0.34761000  1
  C  C224  1  0.03995000  0.80247000  0.34383000  1
  C  C225  1  0.12809000  0.66335000  0.34621000  1
  C  C226  1  0.12723000  0.73825000  0.34477000  1
  C  C227  1  0.22260000  0.73764000  0.34485000  1
  C  C228  1  0.24751000  0.80086000  0.34544000  1
  C  C229  1  0.29507000  0.66251000  0.34523000  1
  C  C230  1  0.34317000  0.78750000  0.34667000  1
  C  C231  1  0.39053000  0.64805000  0.34642000  1
  C  C232  1  0.41463000  0.71202000  0.34722000  1
  C  C233  1  0.51628000  0.70008000  0.34906000  1
  C  C234  1  0.76299000  0.44343000  0.34211000  1
  C  C235  1  0.73765000  0.37773000  0.33459000  1
  C  C236  1  0.72603000  0.33016000  0.37103000  1
  C  C237  1  0.72286000  0.36491000  0.29121000  1
  C  C238  1  0.69964000  0.27099000  0.36271000  1
  C  C239  1  0.69576000  0.30521000  0.28357000  1
  C  C240  1  0.68385000  0.25737000  0.31958000  1
  C  C241  1  0.65859000  0.19042000  0.31892000  1
  C  C242  1  0.65719000  0.15338000  0.36156000  1
  C  C243  1  0.63865000  0.16029000  0.28222000  1
  C  C244  1  0.64060000  0.08651000  0.36884000  1
  C  C245  1  0.61980000  0.09376000  0.28878000  1
  C  C246  1  0.62228000  0.05631000  0.33158000  1
  C  C247  1  0.60840000  0.98273000  0.33775000  1
  S  S248  1  0.44675000  0.17409000  0.90879000  1
  S  S249  1  0.75322000  0.40859000  0.65434000  1
  S  S250  1  0.31628000  0.79827000  0.59674000  1
  S  S251  1  0.37677000  0.17420000  0.40837000  1
  S  S252  1  0.83625000  0.40855000  0.15437000  1
  S  S253  1  0.88456000  0.79744000  0.09757000  1
  S  S254  1  0.62323000  0.82578000  0.59163000  1
  S  S255  1  0.16382000  0.59143000  0.84565000  1
  S  S256  1  0.11552000  0.20250000  0.90246000  1
  S  S257  1  0.55356000  0.82575000  0.09105000  1
  S  S258  1  0.24661000  0.59141000  0.34563000  1
  S  S259  1  0.68377000  0.20155000  0.40330000  1
  O  O260  1  0.37633000  0.19834000  0.73050000  1
  O  O261  1  0.28495000  0.32523000  0.71059000  1
  O  O262  1  0.42970000  0.10383000  0.91990000  1
  O  O263  1  0.54356000  0.16687000  0.90244000  1
  O  O264  1  0.43873000  0.23200000  0.08201000  1
  O  O265  1  0.35285000  0.36123000  0.07781000  1
  O  O266  1  0.20803000  0.23364000  0.66189000  1
  O  O267  1  0.12913000  0.36359000  0.64245000  1
  O  O268  1  0.73886000  0.44272000  0.69575000  1
  O  O269  1  0.72568000  0.46046000  0.61275000  1
  O  O270  1  0.46702000  0.23861000  0.64889000  1
  O  O271  1  0.42006000  0.36748000  0.65124000  1
  O  O272  1  0.22809000  0.54239000  0.61810000  1
  O  O273  1  0.22930000  0.51147000  0.69116000  1
  O  O274  1  0.22610000  0.84869000  0.57337000  1
  O  O275  1  0.39938000  0.76054000  0.57143000  1
  O  O276  1  0.37187000  0.05800000  0.62418000  1
  O  O277  1  0.41610000  0.04232000  0.69550000  1
  O  O278  1  0.42634000  0.20038000  0.22882000  1
  O  O279  1  0.38530000  0.32860000  0.21023000  1
  O  O280  1  0.46313000  0.10378000  0.41970000  1
  O  O281  1  0.28676000  0.16744000  0.40230000  1
  O  O282  1  0.33062000  0.23189000  0.58218000  1
  O  O283  1  0.29269000  0.36071000  0.57806000  1
  O  O284  1  0.55555000  0.23313000  0.16192000  1
  O  O285  1  0.50640000  0.36353000  0.14452000  1
  O  O286  1  0.81716000  0.44269000  0.19578000  1
  O  O287  1  0.81178000  0.46043000  0.11276000  1
  O  O288  1  0.29150000  0.24138000  0.14882000  1
  O  O289  1  0.20861000  0.37061000  0.14888000  1
  O  O290  1  0.22922000  0.54440000  0.11786000  1
  O  O291  1  0.26008000  0.51418000  0.19082000  1
  O  O292  1  0.92502000  0.84662000  0.07311000  1
  O  O293  1  0.83698000  0.75992000  0.07343000  1
  O  O294  1  0.57088000  0.05745000  0.12447000  1
  O  O295  1  0.54441000  0.04326000  0.19609000  1
  O  O296  1  0.57324000  0.79980000  0.77122000  1
  O  O297  1  0.61469000  0.67158000  0.78998000  1
  O  O298  1  0.53686000  0.89620000  0.58032000  1
  O  O299  1  0.71322000  0.83258000  0.59769000  1
  O  O300  1  0.66944000  0.76796000  0.41786000  1
  O  O301  1  0.70763000  0.63918000  0.42193000  1
  O  O302  1  0.44436000  0.76700000  0.83790000  1
  O  O303  1  0.49349000  0.63663000  0.85561000  1
  O  O304  1  0.18291000  0.55728000  0.80424000  1
  O  O305  1  0.18833000  0.53950000  0.88723000  1
  O  O306  1  0.70861000  0.75858000  0.85126000  1
  O  O307  1  0.79134000  0.62930000  0.85110000  1
  O  O308  1  0.77102000  0.45472000  0.88210000  1
  O  O309  1  0.74005000  0.48555000  0.80913000  1
  O  O310  1  0.07488000  0.15346000  0.92693000  1
  O  O311  1  0.16284000  0.24020000  0.92663000  1
  O  O312  1  0.42880000  0.94137000  0.87565000  1
  O  O313  1  0.45867000  0.95749000  0.80453000  1
  O  O314  1  0.62360000  0.80183000  0.26942000  1
  O  O315  1  0.71474000  0.67487000  0.28938000  1
  O  O316  1  0.57060000  0.89603000  0.08001000  1
  O  O317  1  0.45679000  0.83288000  0.09748000  1
  O  O318  1  0.56118000  0.76517000  0.91789000  1
  O  O319  1  0.65001000  0.63627000  0.92245000  1
  O  O320  1  0.79176000  0.76665000  0.33810000  1
  O  O321  1  0.87064000  0.63670000  0.35756000  1
  O  O322  1  0.26110000  0.55727000  0.30422000  1
  O  O323  1  0.27413000  0.53951000  0.38720000  1
  O  O324  1  0.53373000  0.76030000  0.35107000  1
  O  O325  1  0.57989000  0.63152000  0.34877000  1
  O  O326  1  0.77221000  0.45738000  0.38184000  1
  O  O327  1  0.77076000  0.48845000  0.30881000  1
  O  O328  1  0.77399000  0.15113000  0.42664000  1
  O  O329  1  0.60071000  0.23940000  0.42860000  1
  O  O330  1  0.62515000  0.94225000  0.37593000  1
  O  O331  1  0.58397000  0.95752000  0.30434000  1
