# generated using pymatgen
data_CdH2C5(NO2)2
_symmetry_space_group_name_H-M   'P 1'
_cell_length_a   9.14926000
_cell_length_b   12.32512000
_cell_length_c   12.70161000
_cell_angle_alpha   90.29239000
_cell_angle_beta   90.00451000
_cell_angle_gamma   80.75040000
_symmetry_Int_Tables_number   1
_chemical_formula_structural   CdH2C5(NO2)2
_chemical_formula_sum   'Cd6 H12 C30 N12 O24'
_cell_volume   1413.66390551
_cell_formula_units_Z   6
loop_
 _symmetry_equiv_pos_site_id
 _symmetry_equiv_pos_as_xyz
  1  'x, y, z'
loop_
 _atom_site_type_symbol
 _atom_site_label
 _atom_site_symmetry_multiplicity
 _atom_site_fract_x
 _atom_site_fract_y
 _atom_site_fract_z
 _atom_site_occupancy
  Cd  Cd1  1  0.23270000  0.61102000  0.90852000  1.0
  Cd  Cd2  1  0.23259000  0.96695000  0.78833000  1.0
  Cd  Cd3  1  0.24490000  0.66804000  0.55974000  1.0
  Cd  Cd4  1  0.22709000  0.11331000  0.08997000  1.0
  Cd  Cd5  1  0.23347000  0.46841000  0.21104000  1.0
  Cd  Cd6  1  0.24493000  0.16928000  0.43796000  1.0
  H  H1  1  0.97458000  0.84773000  0.66909000  1.0
  H  H2  1  0.84902000  0.57657000  0.01983000  1.0
  H  H3  1  0.60248000  0.01808000  0.87883000  1.0
  H  H4  1  0.69611000  0.62679000  0.70568000  1.0
  H  H5  1  0.75818000  0.80828000  0.61675000  1.0
  H  H6  1  0.20559000  0.90699000  0.22295000  1.0
  H  H7  1  0.97341000  0.34817000  0.33117000  1.0
  H  H8  1  0.84442000  0.07637000  0.98044000  1.0
  H  H9  1  0.60362000  0.51825000  0.12156000  1.0
  H  H10  1  0.69453000  0.12339000  0.29614000  1.0
  H  H11  1  0.75967000  0.30629000  0.37982000  1.0
  H  H12  1  0.19639000  0.40637000  0.77582000  1.0
  C  C1  1  0.02653000  0.64206000  0.70500000  1.0
  C  C2  1  0.91753000  0.62130000  0.78473000  1.0
  C  C3  1  0.76502000  0.61785000  0.77551000  1.0
  C  C4  1  0.71893000  0.59816000  0.87713000  1.0
  C  C5  1  0.56728000  0.59278000  0.91833000  1.0
  C  C6  1  0.43416000  0.79357000  0.64808000  1.0
  C  C7  1  0.54049000  0.85707000  0.69631000  1.0
  C  C8  1  0.69081000  0.85618000  0.67597000  1.0
  C  C9  1  0.73456000  0.92728000  0.75140000  1.0
  C  C10  1  0.87882000  0.95833000  0.77251000  1.0
  C  C11  1  0.21547000  0.70373000  0.35319000  1.0
  C  C12  1  0.20471000  0.72776000  0.24052000  1.0
  C  C13  1  0.20352000  0.82706000  0.18767000  1.0
  C  C14  1  0.20002000  0.79730000  0.08122000  1.0
  C  C15  1  0.20887000  0.85985000  0.98472000  1.0
  C  C16  1  0.02590000  0.13895000  0.29455000  1.0
  C  C17  1  0.91530000  0.11789000  0.21618000  1.0
  C  C18  1  0.76268000  0.11498000  0.22583000  1.0
  C  C19  1  0.71556000  0.09735000  0.12382000  1.0
  C  C20  1  0.56390000  0.09439000  0.08148000  1.0
  C  C21  1  0.43420000  0.29525000  0.35131000  1.0
  C  C22  1  0.54127000  0.35727000  0.30233000  1.0
  C  C23  1  0.69215000  0.35505000  0.32164000  1.0
  C  C24  1  0.73589000  0.42608000  0.24692000  1.0
  C  C25  1  0.87974000  0.45804000  0.22712000  1.0
  C  C26  1  0.21141000  0.20239000  0.64506000  1.0
  C  C27  1  0.19980000  0.22663000  0.75807000  1.0
  C  C28  1  0.19672000  0.32656000  0.81123000  1.0
  C  C29  1  0.19443000  0.29757000  0.91762000  1.0
  C  C30  1  0.20443000  0.36070000  0.01430000  1.0
  N  N1  1  0.96373000  0.60362000  0.88543000  1.0
  N  N2  1  0.84198000  0.59116000  0.94005000  1.0
  N  N3  1  0.49500000  0.92544000  0.77782000  1.0
  N  N4  1  0.61247000  0.96722000  0.81063000  1.0
  N  N5  1  0.20182000  0.64518000  0.16908000  1.0
  N  N6  1  0.19769000  0.68739000  0.07257000  1.0
  N  N7  1  0.96045000  0.10184000  0.11491000  1.0
  N  N8  1  0.83817000  0.09055000  0.06044000  1.0
  N  N9  1  0.49574000  0.42592000  0.22173000  1.0
  N  N10  1  0.61355000  0.46695000  0.18874000  1.0
  N  N11  1  0.19922000  0.14435000  0.82933000  1.0
  N  N12  1  0.19429000  0.18743000  0.92599000  1.0
  O  O1  1  0.98528000  0.69934000  0.62397000  1.0
  O  O2  1  0.16418000  0.60231000  0.72060000  1.0
  O  O3  1  0.46602000  0.59911000  0.84772000  1.0
  O  O4  1  0.54844000  0.58652000  0.01641000  1.0
  O  O5  1  0.48151000  0.70922000  0.59285000  1.0
  O  O6  1  0.29596000  0.82570000  0.66674000  1.0
  O  O7  1  0.99185000  0.91453000  0.70862000  1.0
  O  O8  1  0.90393000  0.02245000  0.84216000  1.0
  O  O9  1  0.20671000  0.78344000  0.41800000  1.0
  O  O10  1  0.23611000  0.60217000  0.38313000  1.0
  O  O11  1  0.23668000  0.95766000  0.98853000  1.0
  O  O12  1  0.19278000  0.81401000  0.89487000  1.0
  O  O13  1  0.98594000  0.19597000  0.37651000  1.0
  O  O14  1  0.16345000  0.10062000  0.27606000  1.0
  O  O15  1  0.45986000  0.10640000  0.15015000  1.0
  O  O16  1  0.54808000  0.08442000  0.98344000  1.0
  O  O17  1  0.48118000  0.21163000  0.40686000  1.0
  O  O18  1  0.29605000  0.32797000  0.33321000  1.0
  O  O19  1  0.99236000  0.41330000  0.29056000  1.0
  O  O20  1  0.90425000  0.52349000  0.15912000  1.0
  O  O21  1  0.19956000  0.28277000  0.58150000  1.0
  O  O22  1  0.23624000  0.10105000  0.61374000  1.0
  O  O23  1  0.23649000  0.45731000  0.01093000  1.0
  O  O24  1  0.18571000  0.31625000  0.10394000  1.0
