# generated using pymatgen
data_H20C37O2
_symmetry_space_group_name_H-M   'P 1'
_cell_length_a   21.09890000
_cell_length_b   32.84850000
_cell_length_c   32.84850000
_cell_angle_alpha   120.00000000
_cell_angle_beta   90.00000000
_cell_angle_gamma   90.00000000
_symmetry_Int_Tables_number   1
_chemical_formula_structural   H20C37O2
_chemical_formula_sum   'H120 C222 O12'
_cell_volume   19716.12353977
_cell_formula_units_Z   6
loop_
 _symmetry_equiv_pos_site_id
 _symmetry_equiv_pos_as_xyz
  1  'x, y, z'
loop_
 _atom_site_type_symbol
 _atom_site_label
 _atom_site_symmetry_multiplicity
 _atom_site_fract_x
 _atom_site_fract_y
 _atom_site_fract_z
 _atom_site_occupancy
  C  1  1  0.59373300  0.97785800  0.40239300  1
  C  2  1  0.56363300  0.93395500  0.37830800  1
  C  3  1  0.59138400  0.90637500  0.33511400  1
  C  4  1  0.64368700  0.92969500  0.33025600  1
  C  5  1  0.67977600  0.90568200  0.28798800  1
  C  6  1  0.66097400  0.86016500  0.25136100  1
  C  7  1  0.56926200  0.86321900  0.29846400  1
  C  8  1  0.50937000  0.92240900  0.39499700  1
  C  9  1  0.47923000  0.95775000  0.43463700  1
  C  10  1  0.71719400  0.97940400  0.39471800  1
  C  11  1  0.74958500  0.95203900  0.41115600  1
  C  12  1  0.81522800  0.96005700  0.42449300  1
  C  17  1  0.65173600  0.97677100  0.37430900  1
  C  18  1  0.00020500  0.97179800  0.53593300  1
  C  19  1  0.05981400  0.96253600  0.55090100  1
  C  20  1  0.25302600  0.96376900  0.60172700  1
  C  21  1  0.21711600  0.94292800  0.62135700  1
  C  22  1  0.15518200  0.96040200  0.62852100  1
  C  23  1  0.23602700  0.90766800  0.63110600  1
  C  24  1  0.19010400  0.88600800  0.64450400  1
  C  25  1  0.12534400  0.89810200  0.64640700  1
  C  26  1  0.10821000  0.93621200  0.63936700  1
  C  27  1  0.34560000  0.97866700  0.56847400  1
  C  28  1  0.31575800  0.95274900  0.58599700  1
  C  34  1  0.95697600  0.93865700  0.50101000  1
  C  35  1  0.96796500  0.92604800  0.45373000  1
  C  36  1  0.91714400  0.92290400  0.42426000  1
  C  37  1  0.85409900  0.93548400  0.44165600  1
  C  38  1  0.84212100  0.94085000  0.48656900  1
  C  41  1  0.89261200  0.93977500  0.51456800  1
  C  45  1  0.08265200  0.86205400  0.64058300  1
  C  95  1  0.60365400  0.84083500  0.25664800  1
  C  99  1  0.04406200  0.80996400  0.66920300  1
  C  100  1  0.07104200  0.85294800  0.67779000  1
  C  101  1  0.07000900  0.82576200  0.59400500  1
  C  105  1  0.69771600  0.82985300  0.21081300  1
  C  106  1  0.71083800  0.84008700  0.17469000  1
  C  107  1  0.73785400  0.80563800  0.13174300  1
  C  124  1  0.85699900  0.73939900  0.09866300  1
  C  126  1  0.03104200  0.77388300  0.62281100  1
  C  127  1  0.04556400  0.78241500  0.58560700  1
  C  129  1  0.74949900  0.75934000  0.12271300  1
  C  130  1  0.73666500  0.74914800  0.15903500  1
  C  131  1  0.71217100  0.78413100  0.20234200  1
  C  143  1  0.92688900  0.58246900  0.57957200  1
  C  144  1  0.89710500  0.60631500  0.55939600  1
  C  145  1  0.92498200  0.64942600  0.57481400  1
  C  146  1  0.97704200  0.65443800  0.60325900  1
  C  147  1  0.01306600  0.69673700  0.62153500  1
  C  148  1  0.99436600  0.73327100  0.61247300  1
  C  149  1  0.93716400  0.72787600  0.58769500  1
  C  150  1  0.90284000  0.68603100  0.56824900  1
  C  151  1  0.84318200  0.58939700  0.53082900  1
  C  152  1  0.81300600  0.54978700  0.52656800  1
  C  153  1  0.83369800  0.52816500  0.55234200  1
  C  154  1  0.89325200  0.54316300  0.57665100  1
  C  155  1  0.05051300  0.59006100  0.58862600  1
  C  156  1  0.08644200  0.59444000  0.62652300  1
  C  157  1  0.05053200  0.61410500  0.66699400  1
  C  158  1  0.98851200  0.62104200  0.65662300  1
  C  159  1  0.06951600  0.62396000  0.71202700  1
  C  160  1  0.02350000  0.63691500  0.74694700  1
  C  161  1  0.95872900  0.63847700  0.73667300  1
  C  162  1  0.94151400  0.63155000  0.69157400  1
  C  163  1  0.08284900  0.57354900  0.54478600  1
  C  164  1  0.14854400  0.56035400  0.53948300  1
  C  165  1  0.17897200  0.56104200  0.57837600  1
  C  166  1  0.14916800  0.57870900  0.62184600  1
  C  178  1  0.98504800  0.61044400  0.60641100  1
  C  179  1  0.50017400  0.00508400  0.45639400  1
  C  180  1  0.55981200  0.01432500  0.44144700  1
  C  181  1  0.75299200  0.01312800  0.39059400  1
  C  182  1  0.71708700  0.03388500  0.37087800  1
  C  183  1  0.65515000  0.01641500  0.36375600  1
  C  184  1  0.73603100  0.06903400  0.36097200  1
  C  185  1  0.69003200  0.09077700  0.34772800  1
  C  186  1  0.62528000  0.07870000  0.34585100  1
  C  187  1  0.60816000  0.04063000  0.35295300  1
  C  188  1  0.84555700  0.99836800  0.42395400  1
  C  189  1  0.81570100  0.02421400  0.40635800  1
  C  196  1  0.26020600  0.40500600  0.00669400  1
  C  197  1  0.23034600  0.42496300  0.05067800  1
  C  198  1  0.25822300  0.40935700  0.07822100  1
  C  199  1  0.31042000  0.38109200  0.05477200  1
  C  200  1  0.34658000  0.36279600  0.07871900  1
  C  201  1  0.32792300  0.37172900  0.12427700  1
  C  202  1  0.27055200  0.39624100  0.14363900  1
  C  203  1  0.23608000  0.41569200  0.12130800  1
  C  204  1  0.17602900  0.45313600  0.06226600  1
  C  205  1  0.14585200  0.45750700  0.02698200  1
  C  206  1  0.16684800  0.43211300  0.97964900  1
  C  207  1  0.22654600  0.40798600  0.97034900  1
  C  208  1  0.38390400  0.39603200  0.00523900  1
  C  209  1  0.41974300  0.35828300  0.97142400  1
  C  210  1  0.38389800  0.31778900  0.95054500  1
  C  211  1  0.32191800  0.32807200  0.96792200  1
  C  212  1  0.40290800  0.27279800  0.91531200  1
  C  213  1  0.35696200  0.23779600  0.89347800  1
  C  214  1  0.29219800  0.24788900  0.90551200  1
  C  215  1  0.27501500  0.29297000  0.94372700  1
  C  216  1  0.41617400  0.43989800  0.03257700  1
  C  217  1  0.48178900  0.44531200  0.02456200  1
  C  218  1  0.51213000  0.40655300  0.98615800  1
  C  219  1  0.48235800  0.36308500  0.96026000  1
  C  232  1  0.31843400  0.37818400  0.00774400  1
  C  233  1  0.42688100  0.39443800  0.41274100  1
  C  234  1  0.39712100  0.37059400  0.43292500  1
  C  235  1  0.42488600  0.32741800  0.41735800  1
  C  236  1  0.47703000  0.32246200  0.38901100  1
  C  237  1  0.51310800  0.28018900  0.37078200  1
  C  238  1  0.49442900  0.24365500  0.37984900  1
  C  239  1  0.43721800  0.24902400  0.40461300  1
  C  240  1  0.40289800  0.29087500  0.42408100  1
  C  241  1  0.34314200  0.38746300  0.46144000  1
  C  242  1  0.31296500  0.42707800  0.46571100  1
  C  243  1  0.33367000  0.44872500  0.43996400  1
  C  244  1  0.39323400  0.43374500  0.41566900  1
  C  245  1  0.55048100  0.38689400  0.40370000  1
  C  246  1  0.58642100  0.38251700  0.36580500  1
  C  247  1  0.55055900  0.36276400  0.32530500  1
  C  248  1  0.48851400  0.35588400  0.33568500  1
  C  249  1  0.56951500  0.35300500  0.28029900  1
  C  250  1  0.52349700  0.34008500  0.24538700  1
  C  251  1  0.45872600  0.33850600  0.25565800  1
  C  252  1  0.44151200  0.34536400  0.30073000  1
  C  253  1  0.58286700  0.40332500  0.44750900  1
  C  254  1  0.64855500  0.41654700  0.45282600  1
  C  255  1  0.67898100  0.41586400  0.41393700  1
  C  256  1  0.64918700  0.39817000  0.37046200  1
  C  269  1  0.48504000  0.36647400  0.38589500  1
  C  270  1  0.09376900  0.99900900  0.58993400  1
  C  271  1  0.06373000  0.04293500  0.61397400  1
  C  272  1  0.09139400  0.07048200  0.65721300  1
  C  273  1  0.14361000  0.04712100  0.66212500  1
  C  274  1  0.17974000  0.07117600  0.70436800  1
  C  275  1  0.16091900  0.11669300  0.74098100  1
  C  276  1  0.10353200  0.13597600  0.73572400  1
  C  277  1  0.06923700  0.11362500  0.69386000  1
  C  278  1  0.00942800  0.05446100  0.59730800  1
  C  279  1  0.97937400  0.01916000  0.55759900  1
  C  280  1  0.21720200  0.99751700  0.59766500  1
  C  281  1  0.24957300  0.02495800  0.58130700  1
  C  282  1  0.31520700  0.01696900  0.56795300  1
  C  289  1  0.15173800  0.00009000  0.61804000  1
  C  290  1  0.76024400  0.57207300  0.98572100  1
  C  291  1  0.73032900  0.55211000  0.94175900  1
  C  292  1  0.75828300  0.56755900  0.91411700  1
  C  293  1  0.81049800  0.59582400  0.93752200  1
  C  294  1  0.84660300  0.61411500  0.91354800  1
  C  295  1  0.82795000  0.60509100  0.86795700  1
  C  296  1  0.77058600  0.58055100  0.84862300  1
  C  297  1  0.73613000  0.56114800  0.87100500  1
  C  298  1  0.67620200  0.52374100  0.93013700  1
  C  299  1  0.64598400  0.51947800  0.96547300  1
  C  300  1  0.66693700  0.54496700  0.01281300  1
  C  301  1  0.72661300  0.56911900  0.02209200  1
  C  302  1  0.88391000  0.58103200  0.98723100  1
  C  303  1  0.91984500  0.61890500  0.02079100  1
  C  304  1  0.88397600  0.65939100  0.04160600  1
  C  305  1  0.82194100  0.64901700  0.02434500  1
  C  306  1  0.90297200  0.70442600  0.07677700  1
  C  307  1  0.79225100  0.72917800  0.08669800  1
  C  308  1  0.77499300  0.68407000  0.04857500  1
  C  309  1  0.91630300  0.53722900  0.95983400  1
  C  310  1  0.98195800  0.53188000  0.96780400  1
  C  311  1  0.01236200  0.57075000  0.00604500  1
  C  312  1  0.98256400  0.61421600  0.03185400  1
  C  324  1  0.81847500  0.59886300  0.98461800  1
  C  325  1  0.29051800  0.48375100  0.44191900  1
  C  326  1  0.30114900  0.53113700  0.47642500  1
  C  327  1  0.25028400  0.56069600  0.50250000  1
  C  328  1  0.18739200  0.54309500  0.49770200  1
  C  329  1  0.17542700  0.49806100  0.45838000  1
  C  332  1  0.22608200  0.47005800  0.42956200  1
  C  337  1  0.62365500  0.54314100  0.04587900  1
  C  338  1  0.63447400  0.50832300  0.05834100  1
  C  339  1  0.58361800  0.48215000  0.06174100  1
  C  340  1  0.52057800  0.48707800  0.04921300  1
  C  341  1  0.50864300  0.52673600  0.04405500  1
  C  344  1  0.55924900  0.55558600  0.04489900  1
  C  348  1  0.79055400  0.49313700  0.55038700  1
  C  349  1  0.80114300  0.44577000  0.51584500  1
  C  350  1  0.75027600  0.41618100  0.48980900  1
  C  351  1  0.68740200  0.43380600  0.49460700  1
  C  352  1  0.67547200  0.47886400  0.53391300  1
  C  355  1  0.72614300  0.50684200  0.56277100  1
  C  359  1  0.45699400  0.03816300  0.49131900  1
  C  360  1  0.46775500  0.05085500  0.53867100  1
  C  361  1  0.41697800  0.05437300  0.56833500  1
  C  362  1  0.35402400  0.04158300  0.55081700  1
  C  363  1  0.34208000  0.03616800  0.50589100  1
  C  366  1  0.39256400  0.03730000  0.47792000  1
  C  369  1  0.12359200  0.43402500  0.94661300  1
  C  370  1  0.13452200  0.46887200  0.93419700  1
  C  371  1  0.08379200  0.49497300  0.93054500  1
  C  372  1  0.02082900  0.49012000  0.94318100  1
  C  373  1  0.00864600  0.45058600  0.94849000  1
  C  376  1  0.05913900  0.42159800  0.94755000  1
  C  382  1  0.36476600  0.36148200  0.15452900  1
  C  383  1  0.37724300  0.31514400  0.14459800  1
  C  384  1  0.40409300  0.30675500  0.17916500  1
  C  385  1  0.41590600  0.34409500  0.22537400  1
  C  386  1  0.40365200  0.39061700  0.23529900  1
  C  389  1  0.37945000  0.39881900  0.20015800  1
  C  393  1  0.53111500  0.20304600  0.36950500  1
  C  394  1  0.54406800  0.16695300  0.32311500  1
  C  395  1  0.57098800  0.12395300  0.31453400  1
  C  396  1  0.58263400  0.11475600  0.35168900  1
  C  397  1  0.57005000  0.15113000  0.39826000  1
  C  400  1  0.54567500  0.19450500  0.40669200  1
  C  404  1  0.19770000  0.14703200  0.78149300  1
  C  405  1  0.21083600  0.13690000  0.81768400  1
  C  406  1  0.23786600  0.17139600  0.86059900  1
  C  407  1  0.24942600  0.21768100  0.86956700  1
  C  408  1  0.23649000  0.22780600  0.83321300  1
  C  411  1  0.21204500  0.19275900  0.78992300  1
  C  415  1  0.86470500  0.61537700  0.83768700  1
  C  416  1  0.87736500  0.66173100  0.84774800  1
  C  417  1  0.90422500  0.67016600  0.81321400  1
  C  418  1  0.91591600  0.63287500  0.76695400  1
  C  419  1  0.90354100  0.58633500  0.75693500  1
  C  422  1  0.87930900  0.57806900  0.79202700  1
  H  13  1  0.72586500  0.92532400  0.41194500  1
  H  14  1  0.72072700  0.92049200  0.28480700  1
  H  15  1  0.48930400  0.88973700  0.37741900  1
  H  16  1  0.43816600  0.94880000  0.44497100  1
  H  29  1  0.39127400  0.96945000  0.55684900  1
  H  30  1  0.34016000  0.92654200  0.58730700  1
  H  31  1  0.28156500  0.89545500  0.62575500  1
  H  32  1  0.06148000  0.94415800  0.63884200  1
  H  33  1  0.07641700  0.92883800  0.53545500  1
  H  39  1  0.92860300  0.92074900  0.39292900  1
  H  40  1  0.01298200  0.92769200  0.44297600  1
  H  42  1  0.88267300  0.95120800  0.54916700  1
  H  44  1  0.28403600  0.98815000  0.46707900  1
  H  46  1  0.08307200  0.87747700  0.71150400  1
  H  47  1  0.70040700  0.87254400  0.17928100  1
  H  96  1  0.58762000  0.80879900  0.23070800  1
  H  97  1  0.52915700  0.84763100  0.30170800  1
  H  98  1  0.20362800  0.85732500  0.64697300  1
  H  102  1  0.03361400  0.80530600  0.69702500  1
  H  104  1  0.05039200  0.84587600  0.55072900  1
  H  108  1  0.74997900  0.81479700  0.10721000  1
  H  123  1  0.92116200  0.75377200  0.58151800  1
  H  125  1  0.87059200  0.77064900  0.12719200  1
  H  128  1  0.03714500  0.75692800  0.55149000  1
  H  132  1  0.70364400  0.77553700  0.22784200  1
  H  167  1  0.22466800  0.54947300  0.57601400  1
  H  168  1  0.17362100  0.58017700  0.64941300  1
  H  169  1  0.11512000  0.61879300  0.71891800  1
  H  170  1  0.03708800  0.63964200  0.77820000  1
  H  171  1  0.89477200  0.63102500  0.68312400  1
  H  172  1  0.05904400  0.57261900  0.51724600  1
  H  173  1  0.05389200  0.70001600  0.63968700  1
  H  174  1  0.86280900  0.68271000  0.54931700  1
  H  175  1  0.90987200  0.52767000  0.59485300  1
  H  176  1  0.82341500  0.60674100  0.51538300  1
  H  177  1  0.77223900  0.53918500  0.50694600  1
  H  190  1  0.89121800  0.00763600  0.43559400  1
  H  191  1  0.84007400  0.05041300  0.40501900  1
  H  192  1  0.78150700  0.08136400  0.36646800  1
  H  193  1  0.70362100  0.11943500  0.34523300  1
  H  194  1  0.56144100  0.03265100  0.35346300  1
  H  195  1  0.57652900  0.04799900  0.45697500  1
  H  220  1  0.55773300  0.40901500  0.97685100  1
  H  221  1  0.50672400  0.33562100  0.93396600  1
  H  222  1  0.44848800  0.26594100  0.90320300  1
  H  223  1  0.37056500  0.20657300  0.86491300  1
  H  224  1  0.22828300  0.30133400  0.95180300  1
  H  225  1  0.39240200  0.46736200  0.05929500  1
  H  226  1  0.38756100  0.34486600  0.06388600  1
  H  227  1  0.25459700  0.40230400  0.17568000  1
  H  228  1  0.19597300  0.43450300  0.13693400  1
  H  229  1  0.24326000  0.38993500  0.93667300  1
  H  230  1  0.15618900  0.46840200  0.09502400  1
  H  231  1  0.10489800  0.47691700  0.03599000  1
  H  257  1  0.72470600  0.42737600  0.41627700  1
  H  258  1  0.67366500  0.39665600  0.34288300  1
  H  259  1  0.61510900  0.35820600  0.27341800  1
  H  260  1  0.53707600  0.33740200  0.21415400  1
  H  261  1  0.39477500  0.34598100  0.30922800  1
  H  262  1  0.55905400  0.40428900  0.47506300  1
  H  263  1  0.55396300  0.27693300  0.35266600  1
  H  264  1  0.42131200  0.22318400  0.41090300  1
  H  265  1  0.36292000  0.29421100  0.44306600  1
  H  266  1  0.40985400  0.44924500  0.39747200  1
  H  267  1  0.32333500  0.37008400  0.47683500  1
  H  268  1  0.27217400  0.43765500  0.48531000  1
  H  283  1  0.22579600  0.05163600  0.58048500  1
  H  284  1  0.22072300  0.05639300  0.70754000  1
  H  285  1  0.08755500  0.16805600  0.76162000  1
  H  286  1  0.02917800  0.12923500  0.69057900  1
  H  287  1  0.98952600  0.08719700  0.61477400  1
  H  288  1  0.93836200  0.02810100  0.54720200  1
  H  313  1  0.05803200  0.56837100  0.01528400  1
  H  314  1  0.00699400  0.64176700  0.05799200  1
  H  315  1  0.94858000  0.71132700  0.08882800  1
  H  316  1  0.72824900  0.67566000  0.04061100  1
  H  317  1  0.89254000  0.50972200  0.93315600  1
  H  318  1  0.88758300  0.63205800  0.92835300  1
  H  319  1  0.75461000  0.57445200  0.81657200  1
  H  320  1  0.69599400  0.54235800  0.85542300  1
  H  321  1  0.74332300  0.58721200  0.05576800  1
  H  322  1  0.65629600  0.50849100  0.89740200  1
  H  323  1  0.60504600  0.50004900  0.95648400  1
  H  330  1  0.26161600  0.59216400  0.53155300  1
  H  331  1  0.34622700  0.54200800  0.48857600  1
  H  333  1  0.21650500  0.43540300  0.40635600  1
  H  335  1  0.11752800  0.45937900  0.46790200  1
  H  336  1  0.78400300  0.98881600  0.52535300  1
  H  342  1  0.59526800  0.45286000  0.06362800  1
  H  343  1  0.67946200  0.49583400  0.05660100  1
  H  345  1  0.54951900  0.57903300  0.03377400  1
  H  347  1  0.45039200  0.51761200  0.99617600  1
  H  353  1  0.76159100  0.38469400  0.46077000  1
  H  354  1  0.84618800  0.43477400  0.50366800  1
  H  356  1  0.71630400  0.54148000  0.58585800  1
  H  358  1  0.61761500  0.51756300  0.52438500  1
  H  364  1  0.42848000  0.05633100  0.59956100  1
  H  365  1  0.51274300  0.04915000  0.54943100  1
  H  367  1  0.38263700  0.02578100  0.44331300  1
  H  374  1  0.09550800  0.52420800  0.92857900  1
  H  375  1  0.17964500  0.48106300  0.93571300  1
  H  377  1  0.04940200  0.39825600  0.95879500  1
  H  379  1  0.95046700  0.45982300  0.99644800  1
  H  381  1  0.71710600  0.68575400  0.13894500  1
  H  387  1  0.41585000  0.27305100  0.17018700  1
  H  388  1  0.36656500  0.28721500  0.11224000  1
  H  390  1  0.37121900  0.43290200  0.20858400  1
  H  392  1  0.38450900  0.43410200  0.29873000  1
  H  398  1  0.58295500  0.09942000  0.28080500  1
  H  399  1  0.53358300  0.17159500  0.29528800  1
  H  401  1  0.53727600  0.21998800  0.44081600  1
  H  403  1  0.55041800  0.13104200  0.44155700  1
  H  409  1  0.25003300  0.16229400  0.88516600  1
  H  410  1  0.20045400  0.10445400  0.81314200  1
  H  412  1  0.20350400  0.20129800  0.76438500  1
  H  414  1  0.21702800  0.29123100  0.85336600  1
  H  420  1  0.91609600  0.70386800  0.82225500  1
  H  421  1  0.86680100  0.68962700  0.88015300  1
  H  423  1  0.87102700  0.54397900  0.78354700  1
  H  425  1  0.88425100  0.54290200  0.69352000  1
  O  43  1  0.78364900  0.95426400  0.50656300  1
  O  103  1  0.08605800  0.82977200  0.55596600  1
  O  334  1  0.11708300  0.47791100  0.45186900  1
  O  346  1  0.45020000  0.53347600  0.03073400  1
  O  357  1  0.61712800  0.49901700  0.54040400  1
  O  368  1  0.28363200  0.02270100  0.48587100  1
  O  378  1  0.95017800  0.44398200  0.96189200  1
  O  380  1  0.75271700  0.70713400  0.15510500  1
  O  391  1  0.41992000  0.42880800  0.27717400  1
  O  402  1  0.58609400  0.14712300  0.43630200  1
  O  413  1  0.25251200  0.26978000  0.83703600  1
  O  424  1  0.91973600  0.54817900  0.71501500  1
