# generated using pymatgen
data_DyH6C15NO9
_symmetry_space_group_name_H-M   'P 1'
_cell_length_a   14.36046000
_cell_length_b   14.43844000
_cell_length_c   15.20291000
_cell_angle_alpha   116.21947000
_cell_angle_beta   97.58833000
_cell_angle_gamma   113.13194000
_symmetry_Int_Tables_number   1
_chemical_formula_structural   DyH6C15NO9
_chemical_formula_sum   'Dy4 H24 C60 N4 O36'
_cell_volume   2415.49456920
_cell_formula_units_Z   4
loop_
 _symmetry_equiv_pos_site_id
 _symmetry_equiv_pos_as_xyz
  1  'x, y, z'
loop_
 _atom_site_type_symbol
 _atom_site_label
 _atom_site_symmetry_multiplicity
 _atom_site_fract_x
 _atom_site_fract_y
 _atom_site_fract_z
 _atom_site_occupancy
  Dy  Dy1  1  0.88651000  0.86996000  0.37772000  1.0
  Dy  Dy2  1  0.49301000  0.00794000  0.12267000  1.0
  Dy  Dy3  1  0.11354000  0.12999000  0.62186000  1.0
  Dy  Dy4  1  0.50928000  0.99063000  0.87538000  1.0
  H  H1  1  0.74683000  0.67976000  0.54547000  1.0
  H  H2  1  0.00580000  0.90056000  0.91384000  1.0
  H  H3  1  0.04018000  0.99062000  0.80467000  1.0
  H  H4  1  0.71899000  0.80472000  0.83734000  1.0
  H  H5  1  0.65128000  0.86768000  0.12013000  1.0
  H  H6  1  0.83909000  0.69498000  0.02709000  1.0
  H  H7  1  0.13575000  0.70109000  0.95341000  1.0
  H  H8  1  0.98604000  0.59077000  0.58511000  1.0
  H  H9  1  0.18579000  0.73484000  0.69343000  1.0
  H  H10  1  0.96662000  0.37831000  0.66220000  1.0
  H  H11  1  0.74527000  0.02962000  0.37984000  1.0
  H  H12  1  0.66773000  0.31155000  0.47232000  1.0
  H  H13  1  0.25316000  0.32055000  0.45428000  1.0
  H  H14  1  0.99623000  0.09850000  0.08495000  1.0
  H  H15  1  0.95990000  0.00929000  0.19442000  1.0
  H  H16  1  0.28525000  0.19591000  0.16219000  1.0
  H  H17  1  0.35030000  0.13101000  0.87823000  1.0
  H  H18  1  0.16193000  0.30298000  0.97114000  1.0
  H  H19  1  0.86589000  0.29917000  0.04612000  1.0
  H  H20  1  0.01332000  0.40968000  0.41489000  1.0
  H  H21  1  0.81404000  0.26455000  0.30547000  1.0
  H  H22  1  0.03302000  0.62061000  0.33740000  1.0
  H  H23  1  0.25350000  0.96986000  0.61988000  1.0
  H  H24  1  0.33276000  0.68946000  0.52783000  1.0
  C  C1  1  0.89422000  0.84262000  0.66937000  1.0
  C  C2  1  0.80316000  0.72964000  0.62635000  1.0
  C  C3  1  0.78237000  0.68208000  0.68872000  1.0
  C  C4  1  0.85431000  0.74534000  0.79360000  1.0
  C  C5  1  0.94911000  0.85471000  0.83375000  1.0
  C  C6  1  0.96832000  0.90392000  0.77284000  1.0
  C  C7  1  0.78469000  0.74503000  0.92459000  1.0
  C  C8  1  0.72683000  0.79626000  0.90506000  1.0
  C  C9  1  0.67613000  0.83783000  0.97366000  1.0
  C  C10  1  0.68653000  0.83213000  0.06370000  1.0
  C  C11  1  0.74595000  0.78109000  0.08221000  1.0
  C  C12  1  0.79352000  0.73488000  0.01200000  1.0
  C  C13  1  0.91447000  0.89951000  0.60697000  1.0
  C  C14  1  0.61300000  0.88786000  0.94640000  1.0
  C  C15  1  0.76797000  0.78520000  0.18265000  1.0
  C  C16  1  0.17409000  0.72387000  0.82892000  1.0
  C  C17  1  0.10432000  0.67604000  0.87241000  1.0
  C  C18  1  0.99420000  0.59250000  0.81035000  1.0
  C  C19  1  0.95211000  0.55864000  0.70520000  1.0
  C  C20  1  0.02098000  0.61376000  0.66490000  1.0
  C  C21  1  0.13137000  0.69438000  0.72552000  1.0
  C  C22  1  0.82027000  0.35813000  0.57456000  1.0
  C  C23  1  0.89032000  0.31902000  0.59440000  1.0
  C  C24  1  0.86210000  0.19970000  0.52584000  1.0
  C  C25  1  0.76609000  0.12098000  0.43596000  1.0
  C  C26  1  0.69693000  0.16250000  0.41752000  1.0
  C  C27  1  0.72232000  0.28047000  0.48732000  1.0
  C  C28  1  0.29370000  0.80660000  0.89097000  1.0
  C  C29  1  0.93850000  0.16265000  0.55300000  1.0
  C  C30  1  0.59919000  0.08392000  0.31811000  1.0
  C  C31  1  0.10604000  0.15714000  0.33000000  1.0
  C  C32  1  0.19719000  0.27010000  0.37313000  1.0
  C  C33  1  0.21849000  0.31743000  0.31067000  1.0
  C  C34  1  0.14735000  0.25355000  0.20532000  1.0
  C  C35  1  0.05231000  0.14448000  0.16528000  1.0
  C  C36  1  0.03220000  0.09571000  0.22638000  1.0
  C  C37  1  0.21738000  0.25375000  0.07415000  1.0
  C  C38  1  0.27635000  0.20370000  0.09409000  1.0
  C  C39  1  0.32670000  0.16200000  0.02506000  1.0
  C  C40  1  0.31534000  0.16702000  0.93471000  1.0
  C  C41  1  0.25556000  0.21778000  0.91621000  1.0
  C  C42  1  0.20795000  0.26361000  0.98653000  1.0
  C  C43  1  0.08552000  0.10024000  0.39233000  1.0
  C  C44  1  0.39007000  0.11207000  0.05242000  1.0
  C  C45  1  0.23301000  0.21390000  0.81592000  1.0
  C  C46  1  0.82666000  0.27532000  0.17003000  1.0
  C  C47  1  0.89673000  0.32380000  0.12705000  1.0
  C  C48  1  0.00673000  0.40745000  0.18947000  1.0
  C  C49  1  0.04831000  0.44118000  0.29467000  1.0
  C  C50  1  0.97902000  0.38613000  0.33476000  1.0
  C  C51  1  0.86881000  0.30500000  0.27360000  1.0
  C  C52  1  0.17973000  0.64160000  0.42544000  1.0
  C  C53  1  0.10929000  0.68017000  0.40530000  1.0
  C  C54  1  0.13708000  0.79935000  0.47377000  1.0
  C  C55  1  0.23305000  0.87861000  0.56382000  1.0
  C  C56  1  0.30285000  0.83784000  0.58237000  1.0
  C  C57  1  0.27776000  0.71994000  0.51262000  1.0
  C  C58  1  0.70734000  0.19199000  0.10724000  1.0
  C  C59  1  0.06065000  0.83612000  0.44599000  1.0
  C  C60  1  0.40105000  0.91654000  0.68155000  1.0
  N  N1  1  0.68201000  0.56553000  0.64143000  1.0
  N  N2  1  0.92505000  0.54066000  0.85856000  1.0
  N  N3  1  0.31861000  0.43425000  0.35841000  1.0
  N  N4  1  0.07623000  0.45997000  0.14181000  1.0
  O  O1  1  0.99095000  0.00869000  0.65721000  1.0
  O  O2  1  0.85604000  0.83688000  0.50855000  1.0
  O  O3  1  0.64823000  0.49569000  0.54434000  1.0
  O  O4  1  0.63800000  0.54590000  0.70088000  1.0
  O  O5  1  0.61233000  0.89854000  0.86769000  1.0
  O  O6  1  0.55830000  0.92030000  0.00240000  1.0
  O  O7  1  0.74955000  0.85291000  0.25939000  1.0
  O  O8  1  0.81451000  0.73032000  0.19624000  1.0
  O  O9  1  0.83688000  0.70281000  0.85894000  1.0
  O  O10  1  0.35254000  0.83224000  0.84010000  1.0
  O  O11  1  0.32938000  0.84715000  0.98948000  1.0
  O  O12  1  0.95150000  0.60493000  0.95543000  1.0
  O  O13  1  0.84670000  0.43705000  0.79995000  1.0
  O  O14  1  0.02616000  0.23882000  0.63394000  1.0
  O  O15  1  0.91631000  0.05318000  0.49466000  1.0
  O  O16  1  0.58757000  0.98641000  0.24255000  1.0
  O  O17  1  0.53194000  0.11812000  0.30328000  1.0
  O  O18  1  0.84391000  0.47552000  0.64021000  1.0
  O  O19  1  0.00896000  0.99114000  0.34203000  1.0
  O  O20  1  0.14380000  0.16277000  0.49080000  1.0
  O  O21  1  0.35184000  0.50415000  0.45545000  1.0
  O  O22  1  0.36306000  0.45404000  0.29927000  1.0
  O  O23  1  0.39212000  0.10385000  0.13227000  1.0
  O  O24  1  0.44327000  0.07724000  0.99531000  1.0
  O  O25  1  0.25082000  0.14603000  0.73867000  1.0
  O  O26  1  0.18653000  0.26917000  0.80292000  1.0
  O  O27  1  0.16473000  0.29540000  0.13951000  1.0
  O  O28  1  0.64826000  0.16359000  0.15711000  1.0
  O  O29  1  0.67155000  0.15356000  0.00943000  1.0
  O  O30  1  0.04964000  0.39691000  0.04479000  1.0
  O  O31  1  0.15514000  0.56310000  0.20124000  1.0
  O  O32  1  0.97305000  0.75994000  0.36498000  1.0
  O  O33  1  0.08311000  0.94577000  0.50404000  1.0
  O  O34  1  0.41213000  0.01295000  0.75838000  1.0
  O  O35  1  0.46945000  0.88307000  0.69472000  1.0
  O  O36  1  0.15639000  0.52424000  0.36014000  1.0
