# generated using pymatgen
data_CuH9C14NO4
_symmetry_space_group_name_H-M   'P 1'
_cell_length_a   16.60401000
_cell_length_b   17.84399848
_cell_length_c   18.78134875
_cell_angle_alpha   78.16190905
_cell_angle_beta   63.79424726
_cell_angle_gamma   62.35424241
_symmetry_Int_Tables_number   1
_chemical_formula_structural   CuH9C14NO4
_chemical_formula_sum   'Cu8 H72 C112 N8 O32'
_cell_volume   4422.62362080
_cell_formula_units_Z   8
loop_
 _symmetry_equiv_pos_site_id
 _symmetry_equiv_pos_as_xyz
  1  'x, y, z'
loop_
 _atom_site_type_symbol
 _atom_site_label
 _atom_site_symmetry_multiplicity
 _atom_site_fract_x
 _atom_site_fract_y
 _atom_site_fract_z
 _atom_site_occupancy
  Cu  Cu1  1  0.05646000  0.94274000  0.95178000  1.0
  Cu  Cu2  1  0.49213000  0.55708000  0.95126000  1.0
  Cu  Cu3  1  0.50059000  0.94297000  0.54884000  1.0
  Cu  Cu4  1  0.45067000  0.55698000  0.54897000  1.0
  Cu  Cu5  1  0.94354000  0.05726000  0.04822000  1.0
  Cu  Cu6  1  0.50786000  0.44293000  0.04874000  1.0
  Cu  Cu7  1  0.49940000  0.05703000  0.45116000  1.0
  Cu  Cu8  1  0.54934000  0.44302000  0.45102000  1.0
  H  H1  1  0.90906000  0.00066000  0.79601000  1.0
  H  H2  1  0.80099000  0.06132000  0.72121000  1.0
  H  H3  1  0.62121000  0.28075000  0.87330000  1.0
  H  H4  1  0.72787000  0.21957000  0.94783000  1.0
  H  H5  1  0.72519000  0.96008000  0.21831000  1.0
  H  H6  1  0.61822000  0.88454000  0.27963000  1.0
  H  H7  1  0.79463000  0.71387000  0.08008000  1.0
  H  H8  1  0.90319000  0.78912000  0.01983000  1.0
  H  H9  1  0.79439000  0.50046000  0.79693000  1.0
  H  H10  1  0.97709000  0.44045000  0.72213000  1.0
  H  H11  1  0.00595000  0.22036000  0.87340000  1.0
  H  H12  1  0.82473000  0.28079000  0.94804000  1.0
  H  H13  1  0.55703000  0.53958000  0.21700000  1.0
  H  H14  1  0.60226000  0.61481000  0.27917000  1.0
  H  H15  1  0.62468000  0.78677000  0.08052000  1.0
  H  H16  1  0.57718000  0.71152000  0.01928000  1.0
  H  H17  1  0.58894000  0.00145000  0.70339000  1.0
  H  H18  1  0.63737000  0.06155000  0.77803000  1.0
  H  H19  1  0.59902000  0.28096000  0.62594000  1.0
  H  H20  1  0.55226000  0.22049000  0.55166000  1.0
  H  H21  1  0.81461000  0.96033000  0.28397000  1.0
  H  H22  1  0.99705000  0.88456000  0.22196000  1.0
  H  H23  1  0.99173000  0.71377000  0.42146000  1.0
  H  H24  1  0.80815000  0.78926000  0.48248000  1.0
  H  H25  1  0.20656000  0.49991000  0.70266000  1.0
  H  H26  1  0.08353000  0.43986000  0.77754000  1.0
  H  H27  1  0.27361000  0.22012000  0.62608000  1.0
  H  H28  1  0.39482000  0.28053000  0.55141000  1.0
  H  H29  1  0.40178000  0.53933000  0.28377000  1.0
  H  H30  1  0.28096000  0.61508000  0.22193000  1.0
  H  H31  1  0.08754000  0.78611000  0.42122000  1.0
  H  H32  1  0.21047000  0.71035000  0.48215000  1.0
  H  H33  1  0.09094000  0.99934000  0.20399000  1.0
  H  H34  1  0.19902000  0.93868000  0.27878000  1.0
  H  H35  1  0.37880000  0.71925000  0.12669000  1.0
  H  H36  1  0.27213000  0.78043000  0.05217000  1.0
  H  H37  1  0.27481000  0.03992000  0.78169000  1.0
  H  H38  1  0.38178000  0.11546000  0.72036000  1.0
  H  H39  1  0.20537000  0.28613000  0.91992000  1.0
  H  H40  1  0.09680000  0.21089000  0.98017000  1.0
  H  H41  1  0.20562000  0.49954000  0.20306000  1.0
  H  H42  1  0.02291000  0.55956000  0.27786000  1.0
  H  H43  1  0.99404000  0.77965000  0.12660000  1.0
  H  H44  1  0.17527000  0.71921000  0.05196000  1.0
  H  H45  1  0.44297000  0.46042000  0.78300000  1.0
  H  H46  1  0.39774000  0.38519000  0.72083000  1.0
  H  H47  1  0.37532000  0.21323000  0.91948000  1.0
  H  H48  1  0.42281000  0.28849000  0.98072000  1.0
  H  H49  1  0.41106000  0.99855000  0.29661000  1.0
  H  H50  1  0.36264000  0.93845000  0.22196000  1.0
  H  H51  1  0.40098000  0.71904000  0.37406000  1.0
  H  H52  1  0.44774000  0.77951000  0.44834000  1.0
  H  H53  1  0.18539000  0.03967000  0.71602000  1.0
  H  H54  1  0.00296000  0.11544000  0.77804000  1.0
  H  H55  1  0.00827000  0.28623000  0.57854000  1.0
  H  H56  1  0.19185000  0.21075000  0.51751000  1.0
  H  H57  1  0.79343000  0.50010000  0.29734000  1.0
  H  H58  1  0.91648000  0.56014000  0.22245000  1.0
  H  H59  1  0.72639000  0.77989000  0.37391000  1.0
  H  H60  1  0.60519000  0.71947000  0.44858000  1.0
  H  H61  1  0.59822000  0.46067000  0.71623000  1.0
  H  H62  1  0.71904000  0.38492000  0.77807000  1.0
  H  H63  1  0.91246000  0.21389000  0.57878000  1.0
  H  H64  1  0.78952000  0.28966000  0.51785000  1.0
  H  H65  1  0.60999000  0.27828000  0.75076000  1.0
  H  H66  1  0.13858000  0.22288000  0.75066000  1.0
  H  H67  1  0.39000000  0.72173000  0.24924000  1.0
  H  H68  1  0.86142000  0.77713000  0.24933000  1.0
  H  H69  1  0.60879000  0.75031000  0.28127000  1.0
  H  H70  1  0.14025000  0.75057000  0.21985000  1.0
  H  H71  1  0.39121000  0.24969000  0.71873000  1.0
  H  H72  1  0.85975000  0.24943000  0.78015000  1.0
  C  C1  1  0.82617000  0.10553000  0.87691000  1.0
  C  C2  1  0.84499000  0.06150000  0.81307000  1.0
  C  C3  1  0.78416000  0.09518000  0.77155000  1.0
  C  C4  1  0.70272000  0.17518000  0.79242000  1.0
  C  C5  1  0.68411000  0.21951000  0.85618000  1.0
  C  C6  1  0.74439000  0.18500000  0.89807000  1.0
  C  C7  1  0.89163000  0.06920000  0.92053000  1.0
  C  C8  1  0.88808000  0.92339000  0.07700000  1.0
  C  C9  1  0.82178000  0.87985000  0.11445000  1.0
  C  C10  1  0.74095000  0.90586000  0.18822000  1.0
  C  C11  1  0.68055000  0.86328000  0.22283000  1.0
  C  C12  1  0.69832000  0.79395000  0.18396000  1.0
  C  C13  1  0.77888000  0.76833000  0.10972000  1.0
  C  C14  1  0.83974000  0.81028000  0.07613000  1.0
  C  C15  1  0.79683000  0.39502000  0.87724000  1.0
  C  C16  1  0.84153000  0.43950000  0.81369000  1.0
  C  C17  1  0.94379000  0.40615000  0.77210000  1.0
  C  C18  1  0.00442000  0.32597000  0.79265000  1.0
  C  C19  1  0.95970000  0.28143000  0.85637000  1.0
  C  C20  1  0.85762000  0.31560000  0.89834000  1.0
  C  C21  1  0.68778000  0.43100000  0.92053000  1.0
  C  C22  1  0.53554000  0.57692000  0.07588000  1.0
  C  C23  1  0.56434000  0.62033000  0.11350000  1.0
  C  C24  1  0.57129000  0.59396000  0.18730000  1.0
  C  C25  1  0.59684000  0.63636000  0.22233000  1.0
  C  C26  1  0.61775000  0.70587000  0.18380000  1.0
  C  C27  1  0.61128000  0.73196000  0.10964000  1.0
  C  C28  1  0.58439000  0.69012000  0.07557000  1.0
  C  C29  1  0.56752000  0.10643000  0.62267000  1.0
  C  C30  1  0.59270000  0.06215000  0.68641000  1.0
  C  C31  1  0.62026000  0.09557000  0.72782000  1.0
  C  C32  1  0.62208000  0.17548000  0.70696000  1.0
  C  C33  1  0.59659000  0.21995000  0.64319000  1.0
  C  C34  1  0.57033000  0.18577000  0.60137000  1.0
  C  C35  1  0.53803000  0.06996000  0.57945000  1.0
  C  C36  1  0.68884000  0.92303000  0.42520000  1.0
  C  C37  1  0.79858000  0.87984000  0.38775000  1.0
  C  C38  1  0.85310000  0.90598000  0.31385000  1.0
  C  C39  1  0.95588000  0.86339000  0.27885000  1.0
  C  C40  1  0.00742000  0.79394000  0.31750000  1.0
  C  C41  1  0.95289000  0.76826000  0.39196000  1.0
  C  C42  1  0.85025000  0.81029000  0.42595000  1.0
  C  C43  1  0.30873000  0.39464000  0.62228000  1.0
  C  C44  1  0.21983000  0.43911000  0.68589000  1.0
  C  C45  1  0.15088000  0.40576000  0.72743000  1.0
  C  C46  1  0.17005000  0.32573000  0.70679000  1.0
  C  C47  1  0.25910000  0.28116000  0.64304000  1.0
  C  C48  1  0.32712000  0.31529000  0.60110000  1.0
  C  C49  1  0.38166000  0.43084000  0.57923000  1.0
  C  C50  1  0.38685000  0.57683000  0.42463000  1.0
  C  C51  1  0.31429000  0.61990000  0.38741000  1.0
  C  C52  1  0.33342000  0.59369000  0.31362000  1.0
  C  C53  1  0.26547000  0.63627000  0.27874000  1.0
  C  C54  1  0.17546000  0.70580000  0.31742000  1.0
  C  C55  1  0.15576000  0.73150000  0.39179000  1.0
  C  C56  1  0.22450000  0.68942000  0.42570000  1.0
  C  C57  1  0.17383000  0.89447000  0.12309000  1.0
  C  C58  1  0.15500000  0.93851000  0.18693000  1.0
  C  C59  1  0.21584000  0.90482000  0.22845000  1.0
  C  C60  1  0.29728000  0.82482000  0.20758000  1.0
  C  C61  1  0.31588000  0.78050000  0.14382000  1.0
  C  C62  1  0.25561000  0.81500000  0.10193000  1.0
  C  C63  1  0.10837000  0.93080000  0.07947000  1.0
  C  C64  1  0.11193000  0.07661000  0.92299000  1.0
  C  C65  1  0.17823000  0.12015000  0.88555000  1.0
  C  C66  1  0.25904000  0.09414000  0.81178000  1.0
  C  C67  1  0.31945000  0.13672000  0.77717000  1.0
  C  C68  1  0.30168000  0.20605000  0.81604000  1.0
  C  C69  1  0.22112000  0.23167000  0.89028000  1.0
  C  C70  1  0.16027000  0.18972000  0.92386000  1.0
  C  C71  1  0.20316000  0.60499000  0.12276000  1.0
  C  C72  1  0.15847000  0.56050000  0.18631000  1.0
  C  C73  1  0.05621000  0.59386000  0.22789000  1.0
  C  C74  1  0.99558000  0.67403000  0.20735000  1.0
  C  C75  1  0.04030000  0.71858000  0.14362000  1.0
  C  C76  1  0.14238000  0.68440000  0.10166000  1.0
  C  C77  1  0.31223000  0.56900000  0.07946000  1.0
  C  C78  1  0.46445000  0.42309000  0.92412000  1.0
  C  C79  1  0.43566000  0.37967000  0.88650000  1.0
  C  C80  1  0.42872000  0.40604000  0.81269000  1.0
  C  C81  1  0.40315000  0.36365000  0.77767000  1.0
  C  C82  1  0.38225000  0.29413000  0.81620000  1.0
  C  C83  1  0.38872000  0.26804000  0.89036000  1.0
  C  C84  1  0.41560000  0.30989000  0.92443000  1.0
  C  C85  1  0.43248000  0.89357000  0.37733000  1.0
  C  C86  1  0.40730000  0.93785000  0.31359000  1.0
  C  C87  1  0.37975000  0.90443000  0.27217000  1.0
  C  C88  1  0.37792000  0.82452000  0.29304000  1.0
  C  C89  1  0.40340000  0.78006000  0.35681000  1.0
  C  C90  1  0.42967000  0.81423000  0.39863000  1.0
  C  C91  1  0.46196000  0.93004000  0.42055000  1.0
  C  C92  1  0.31116000  0.07698000  0.57479000  1.0
  C  C93  1  0.20142000  0.12016000  0.61225000  1.0
  C  C94  1  0.14690000  0.09403000  0.68614000  1.0
  C  C95  1  0.04411000  0.13662000  0.72115000  1.0
  C  C96  1  0.99258000  0.20606000  0.68250000  1.0
  C  C97  1  0.04710000  0.23175000  0.60804000  1.0
  C  C98  1  0.14973000  0.18972000  0.57405000  1.0
  C  C99  1  0.69127000  0.60536000  0.37772000  1.0
  C  C100  1  0.78017000  0.56089000  0.31411000  1.0
  C  C101  1  0.84912000  0.59424000  0.27257000  1.0
  C  C102  1  0.82995000  0.67427000  0.29321000  1.0
  C  C103  1  0.74090000  0.71885000  0.35695000  1.0
  C  C104  1  0.67288000  0.68471000  0.39890000  1.0
  C  C105  1  0.61833000  0.56917000  0.42077000  1.0
  C  C106  1  0.61314000  0.42318000  0.57537000  1.0
  C  C107  1  0.68570000  0.38010000  0.61259000  1.0
  C  C108  1  0.66658000  0.40631000  0.68638000  1.0
  C  C109  1  0.73453000  0.36373000  0.72125000  1.0
  C  C110  1  0.82454000  0.29420000  0.68258000  1.0
  C  C111  1  0.84425000  0.26850000  0.60820000  1.0
  C  C112  1  0.77549000  0.31059000  0.57430000  1.0
  N  N1  1  0.64324000  0.21382000  0.74975000  1.0
  N  N2  1  0.10635000  0.28733000  0.74976000  1.0
  N  N3  1  0.35676000  0.78619000  0.25024000  1.0
  N  N4  1  0.89364000  0.71268000  0.25024000  1.0
  N  N5  1  0.63964000  0.74983000  0.22080000  1.0
  N  N6  1  0.10995000  0.74996000  0.28032000  1.0
  N  N7  1  0.36037000  0.25017000  0.77919000  1.0
  N  N8  1  0.89005000  0.25004000  0.71968000  1.0
  O  O1  1  0.96853000  0.88663000  0.01656000  1.0
  O  O2  1  0.97077000  0.00076000  0.89279000  1.0
  O  O3  1  0.86551000  0.10901000  0.98246000  1.0
  O  O4  1  0.86201000  0.99357000  0.10727000  1.0
  O  O5  1  0.51677000  0.61321000  0.01478000  1.0
  O  O6  1  0.63661000  0.49931000  0.89245000  1.0
  O  O7  1  0.65174000  0.39118000  0.98235000  1.0
  O  O8  1  0.53011000  0.50731000  0.10690000  1.0
  O  O9  1  0.64525000  0.88653000  0.48610000  1.0
  O  O10  1  0.52740000  0.00151000  0.60767000  1.0
  O  O11  1  0.52407000  0.10949000  0.51756000  1.0
  O  O12  1  0.64481000  0.99256000  0.39417000  1.0
  O  O13  1  0.36949000  0.61319000  0.48566000  1.0
  O  O14  1  0.36444000  0.49900000  0.60770000  1.0
  O  O15  1  0.45736000  0.39134000  0.51730000  1.0
  O  O16  1  0.46210000  0.50759000  0.39324000  1.0
  O  O17  1  0.03147000  0.11337000  0.98344000  1.0
  O  O18  1  0.02922000  0.99925000  0.10721000  1.0
  O  O19  1  0.13449000  0.89099000  0.01754000  1.0
  O  O20  1  0.13799000  0.00643000  0.89273000  1.0
  O  O21  1  0.48322000  0.38680000  0.98522000  1.0
  O  O22  1  0.36339000  0.50069000  0.10755000  1.0
  O  O23  1  0.34825000  0.60883000  0.01765000  1.0
  O  O24  1  0.46989000  0.49269000  0.89310000  1.0
  O  O25  1  0.35474000  0.11348000  0.51390000  1.0
  O  O26  1  0.47260000  0.99849000  0.39233000  1.0
  O  O27  1  0.47594000  0.89051000  0.48243000  1.0
  O  O28  1  0.35519000  0.00744000  0.60582000  1.0
  O  O29  1  0.63051000  0.38681000  0.51434000  1.0
  O  O30  1  0.63556000  0.50100000  0.39230000  1.0
  O  O31  1  0.54264000  0.60866000  0.48270000  1.0
  O  O32  1  0.53790000  0.49242000  0.60675000  1.0
