# generated using pymatgen
data_ZnH24C34(NO3)2
_symmetry_space_group_name_H-M   'P 1'
_cell_length_a   11.16883249
_cell_length_b   11.17608000
_cell_length_c   44.31198000
_cell_angle_alpha   90.00000000
_cell_angle_beta   90.00000000
_cell_angle_gamma   119.97872831
_symmetry_Int_Tables_number   1
_chemical_formula_structural   ZnH24C34(NO3)2
_chemical_formula_sum   'Zn6 H144 C204 N12 O36'
_cell_volume   4791.17591908
_cell_formula_units_Z   6
loop_
 _symmetry_equiv_pos_site_id
 _symmetry_equiv_pos_as_xyz
  1  'x, y, z'
loop_
 _atom_site_type_symbol
 _atom_site_label
 _atom_site_symmetry_multiplicity
 _atom_site_fract_x
 _atom_site_fract_y
 _atom_site_fract_z
 _atom_site_occupancy
  Zn  Zn1  1  0.47913000  0.52125000  0.58296000  1.0
  Zn  Zn2  1  0.47897000  0.95791000  0.25003000  1.0
  Zn  Zn3  1  0.04212000  0.52125000  0.91704000  1.0
  Zn  Zn4  1  0.52086000  0.47873000  0.08296000  1.0
  Zn  Zn5  1  0.52103000  0.04207000  0.75001000  1.0
  Zn  Zn6  1  0.95787000  0.47874000  0.41704000  1.0
  H  H1  1  0.63939000  0.79613000  0.76719000  1.0
  H  H2  1  0.88121000  0.46512000  0.72561000  1.0
  H  H3  1  0.56956000  0.66149000  0.66847000  1.0
  H  H4  1  0.57666000  0.77222000  0.71719000  1.0
  H  H5  1  0.46494000  0.71445000  0.62671000  1.0
  H  H6  1  0.78734000  0.02780000  0.55018000  1.0
  H  H7  1  0.67874000  0.77132000  0.54669000  1.0
  H  H8  1  0.75983000  0.38584000  0.63217000  1.0
  H  H9  1  0.56655000  0.96696000  0.63406000  1.0
  H  H10  1  0.87623000  0.35286000  0.67714000  1.0
  H  H11  1  0.76836000  0.20582000  0.61811000  1.0
  H  H12  1  0.63262000  0.17776000  0.59447000  1.0
  H  H13  1  0.20373000  0.84323000  0.43383000  1.0
  H  H14  1  0.53448000  0.41578000  0.39229000  1.0
  H  H15  1  0.33821000  0.90808000  0.33512000  1.0
  H  H16  1  0.22757000  0.80452000  0.38383000  1.0
  H  H17  1  0.28512000  0.75025000  0.29360000  1.0
  H  H18  1  0.97234000  0.75892000  0.21684000  1.0
  H  H19  1  0.22900000  0.90696000  0.21347000  1.0
  H  H20  1  0.61419000  0.37393000  0.29886000  1.0
  H  H21  1  0.03251000  0.59915000  0.30080000  1.0
  H  H22  1  0.64697000  0.52321000  0.34384000  1.0
  H  H23  1  0.79352000  0.56142000  0.28467000  1.0
  H  H24  1  0.82181000  0.45436000  0.26091000  1.0
  H  H25  1  0.15677000  0.36046000  0.10054000  1.0
  H  H26  1  0.58376000  0.11837000  0.05903000  1.0
  H  H27  1  0.09156000  0.42991000  0.00182000  1.0
  H  H28  1  0.19538000  0.42294000  0.05052000  1.0
  H  H29  1  0.25058000  0.53469000  0.96053000  1.0
  H  H30  1  0.24071000  0.21406000  0.88344000  1.0
  H  H31  1  0.09309000  0.32325000  0.88028000  1.0
  H  H32  1  0.62549000  0.23934000  0.96555000  1.0
  H  H33  1  0.40134000  0.43263000  0.96749000  1.0
  H  H34  1  0.47617000  0.12298000  0.01056000  1.0
  H  H35  1  0.43872000  0.23197000  0.95124000  1.0
  H  H36  1  0.54567000  0.36710000  0.92741000  1.0
  H  H37  1  0.20369000  0.36046000  0.39946000  1.0
  H  H38  1  0.53461000  0.11838000  0.44097000  1.0
  H  H39  1  0.33835000  0.42991000  0.49818000  1.0
  H  H40  1  0.22756000  0.42294000  0.44948000  1.0
  H  H41  1  0.28411000  0.53469000  0.53947000  1.0
  H  H42  1  0.97335000  0.21406000  0.61656000  1.0
  H  H43  1  0.23016000  0.32325000  0.61972000  1.0
  H  H44  1  0.61385000  0.23934000  0.53445000  1.0
  H  H45  1  0.03128000  0.43261000  0.53251000  1.0
  H  H46  1  0.64681000  0.12299000  0.48944000  1.0
  H  H47  1  0.79325000  0.23197000  0.54876000  1.0
  H  H48  1  0.82143000  0.36710000  0.57259000  1.0
  H  H49  1  0.15675000  0.79614000  0.73281000  1.0
  H  H50  1  0.58391000  0.46512000  0.77439000  1.0
  H  H51  1  0.09193000  0.66149000  0.83153000  1.0
  H  H52  1  0.19556000  0.77221000  0.78281000  1.0
  H  H53  1  0.24951000  0.71445000  0.87329000  1.0
  H  H54  1  0.24045000  0.02779000  0.94982000  1.0
  H  H55  1  0.09258000  0.77132000  0.95331000  1.0
  H  H56  1  0.62601000  0.38584000  0.86783000  1.0
  H  H57  1  0.40041000  0.96696000  0.86594000  1.0
  H  H58  1  0.47662000  0.35285000  0.82286000  1.0
  H  H59  1  0.43746000  0.20582000  0.88189000  1.0
  H  H60  1  0.54514000  0.17777000  0.90553000  1.0
  H  H61  1  0.63950000  0.84323000  0.06617000  1.0
  H  H62  1  0.88130000  0.41578000  0.10771000  1.0
  H  H63  1  0.56986000  0.90807000  0.16488000  1.0
  H  H64  1  0.57695000  0.80452000  0.11617000  1.0
  H  H65  1  0.46513000  0.75027000  0.20640000  1.0
  H  H66  1  0.78660000  0.75891000  0.28316000  1.0
  H  H67  1  0.67798000  0.90694000  0.28653000  1.0
  H  H68  1  0.75973000  0.37391000  0.20114000  1.0
  H  H69  1  0.56663000  0.59917000  0.19920000  1.0
  H  H70  1  0.87623000  0.52319000  0.15616000  1.0
  H  H71  1  0.76790000  0.56142000  0.21532000  1.0
  H  H72  1  0.63255000  0.45436000  0.23909000  1.0
  H  H73  1  0.36060000  0.20385000  0.26719000  1.0
  H  H74  1  0.11878000  0.53486000  0.22561000  1.0
  H  H75  1  0.43044000  0.33850000  0.16847000  1.0
  H  H76  1  0.42333000  0.22776000  0.21719000  1.0
  H  H77  1  0.53506000  0.28554000  0.12671000  1.0
  H  H78  1  0.21265000  0.97218000  0.05018000  1.0
  H  H79  1  0.32125000  0.22866000  0.04669000  1.0
  H  H80  1  0.24017000  0.61415000  0.13217000  1.0
  H  H81  1  0.43344000  0.03302000  0.13406000  1.0
  H  H82  1  0.12376000  0.64712000  0.17714000  1.0
  H  H83  1  0.23163000  0.79417000  0.11811000  1.0
  H  H84  1  0.36737000  0.82223000  0.09447000  1.0
  H  H85  1  0.79626000  0.15675000  0.93383000  1.0
  H  H86  1  0.46552000  0.58421000  0.89229000  1.0
  H  H87  1  0.66178000  0.09190000  0.83512000  1.0
  H  H88  1  0.77243000  0.19547000  0.88383000  1.0
  H  H89  1  0.71487000  0.24973000  0.79360000  1.0
  H  H90  1  0.02766000  0.24107000  0.71684000  1.0
  H  H91  1  0.77100000  0.09303000  0.71347000  1.0
  H  H92  1  0.38581000  0.62606000  0.79886000  1.0
  H  H93  1  0.96747000  0.40083000  0.80080000  1.0
  H  H94  1  0.35302000  0.47677000  0.84384000  1.0
  H  H95  1  0.20647000  0.43856000  0.78468000  1.0
  H  H96  1  0.17819000  0.54563000  0.76091000  1.0
  H  H97  1  0.84322000  0.63953000  0.60054000  1.0
  H  H98  1  0.41623000  0.88161000  0.55903000  1.0
  H  H99  1  0.90843000  0.57007000  0.50182000  1.0
  H  H100  1  0.80461000  0.57704000  0.55052000  1.0
  H  H101  1  0.74941000  0.46530000  0.46053000  1.0
  H  H102  1  0.75928000  0.78592000  0.38344000  1.0
  H  H103  1  0.90690000  0.67673000  0.38028000  1.0
  H  H104  1  0.37450000  0.76064000  0.46555000  1.0
  H  H105  1  0.59866000  0.56737000  0.46749000  1.0
  H  H106  1  0.52382000  0.87700000  0.51056000  1.0
  H  H107  1  0.56128000  0.76802000  0.45124000  1.0
  H  H108  1  0.45433000  0.63289000  0.42741000  1.0
  H  H109  1  0.79631000  0.63953000  0.89946000  1.0
  H  H110  1  0.46538000  0.88160000  0.94097000  1.0
  H  H111  1  0.66165000  0.57009000  0.99818000  1.0
  H  H112  1  0.77243000  0.57704000  0.94948000  1.0
  H  H113  1  0.71589000  0.46530000  0.03947000  1.0
  H  H114  1  0.02664000  0.78592000  0.11656000  1.0
  H  H115  1  0.76983000  0.67673000  0.11972000  1.0
  H  H116  1  0.38614000  0.76064000  0.03445000  1.0
  H  H117  1  0.96871000  0.56737000  0.03250000  1.0
  H  H118  1  0.35319000  0.87701000  0.98944000  1.0
  H  H119  1  0.20674000  0.76802000  0.04876000  1.0
  H  H120  1  0.17856000  0.63289000  0.07259000  1.0
  H  H121  1  0.84324000  0.20385000  0.23281000  1.0
  H  H122  1  0.41608000  0.53486000  0.27439000  1.0
  H  H123  1  0.90806000  0.33850000  0.33153000  1.0
  H  H124  1  0.80443000  0.22777000  0.28281000  1.0
  H  H125  1  0.75049000  0.28554000  0.37329000  1.0
  H  H126  1  0.75954000  0.97219000  0.44982000  1.0
  H  H127  1  0.90741000  0.22866000  0.45331000  1.0
  H  H128  1  0.37398000  0.61415000  0.36782000  1.0
  H  H129  1  0.59959000  0.03303000  0.36594000  1.0
  H  H130  1  0.52337000  0.64713000  0.32286000  1.0
  H  H131  1  0.56254000  0.79417000  0.38189000  1.0
  H  H132  1  0.45486000  0.82223000  0.40553000  1.0
  H  H133  1  0.36049000  0.15675000  0.56617000  1.0
  H  H134  1  0.11869000  0.58420000  0.60771000  1.0
  H  H135  1  0.43013000  0.09191000  0.66488000  1.0
  H  H136  1  0.42304000  0.19546000  0.61617000  1.0
  H  H137  1  0.53487000  0.24973000  0.70640000  1.0
  H  H138  1  0.21340000  0.24107000  0.78316000  1.0
  H  H139  1  0.32202000  0.09304000  0.78653000  1.0
  H  H140  1  0.24026000  0.62607000  0.70114000  1.0
  H  H141  1  0.43336000  0.40082000  0.69920000  1.0
  H  H142  1  0.12376000  0.47679000  0.65616000  1.0
  H  H143  1  0.23209000  0.43856000  0.71532000  1.0
  H  H144  1  0.36745000  0.54563000  0.73909000  1.0
  C  C1  1  0.76449000  0.55844000  0.70924000  1.0
  C  C2  1  0.69894000  0.69795000  0.73993000  1.0
  C  C3  1  0.82925000  0.47722000  0.70609000  1.0
  C  C4  1  0.69029000  0.50522000  0.65609000  1.0
  C  C5  1  0.69083000  0.57082000  0.68385000  1.0
  C  C6  1  0.76957000  0.62443000  0.73714000  1.0
  C  C7  1  0.62460000  0.65031000  0.68747000  1.0
  C  C8  1  0.62728000  0.71096000  0.71473000  1.0
  C  C9  1  0.53775000  0.78760000  0.61043000  1.0
  C  C10  1  0.61600000  0.51084000  0.62866000  1.0
  C  C11  1  0.68319000  0.02028000  0.59218000  1.0
  C  C12  1  0.71634000  0.96286000  0.56771000  1.0
  C  C13  1  0.65662000  0.81988000  0.56551000  1.0
  C  C14  1  0.75969000  0.43162000  0.65377000  1.0
  C  C15  1  0.59497000  0.92881000  0.61430000  1.0
  C  C16  1  0.82647000  0.41494000  0.67903000  1.0
  C  C17  1  0.72815000  0.17153000  0.59516000  1.0
  C  C18  1  0.44137000  0.20593000  0.37589000  1.0
  C  C19  1  0.30191000  0.00091000  0.40658000  1.0
  C  C20  1  0.52249000  0.35183000  0.37277000  1.0
  C  C21  1  0.49471000  0.18517000  0.32278000  1.0
  C  C22  1  0.42908000  0.11998000  0.35051000  1.0
  C  C23  1  0.37535000  0.14496000  0.40379000  1.0
  C  C24  1  0.34962000  0.97433000  0.35412000  1.0
  C  C25  1  0.28891000  0.91633000  0.38138000  1.0
  C  C26  1  0.21211000  0.74984000  0.27726000  1.0
  C  C27  1  0.48922000  0.10542000  0.29536000  1.0
  C  C28  1  0.97947000  0.66235000  0.25886000  1.0
  C  C29  1  0.03716000  0.75294000  0.23442000  1.0
  C  C30  1  0.18026000  0.83632000  0.23229000  1.0
  C  C31  1  0.56822000  0.32807000  0.32045000  1.0
  C  C32  1  0.07076000  0.66568000  0.28105000  1.0
  C  C33  1  0.58484000  0.41144000  0.34572000  1.0
  C  C34  1  0.82807000  0.55604000  0.26172000  1.0
  C  C35  1  0.79371000  0.23521000  0.04262000  1.0
  C  C36  1  0.99894000  0.30090000  0.07329000  1.0
  C  C37  1  0.64769000  0.17030000  0.03949000  1.0
  C  C38  1  0.81439000  0.30916000  0.98949000  1.0
  C  C39  1  0.87963000  0.30883000  0.01724000  1.0
  C  C40  1  0.85477000  0.23020000  0.07051000  1.0
  C  C41  1  0.02537000  0.37503000  0.02083000  1.0
  C  C42  1  0.08348000  0.37240000  0.04807000  1.0
  C  C43  1  0.25067000  0.46226000  0.94411000  1.0
  C  C44  1  0.89416000  0.38344000  0.96210000  1.0
  C  C45  1  0.33764000  0.31702000  0.92551000  1.0
  C  C46  1  0.24695000  0.28465000  0.90108000  1.0
  C  C47  1  0.16378000  0.34465000  0.89908000  1.0
  C  C48  1  0.67138000  0.23954000  0.98716000  1.0
  C  C49  1  0.33462000  0.40476000  0.94777000  1.0
  C  C50  1  0.58804000  0.17285000  0.01243000  1.0
  C  C51  1  0.44388000  0.27178000  0.92829000  1.0
  C  C52  1  0.44150000  0.23521000  0.45738000  1.0
  C  C53  1  0.30196000  0.30089000  0.42671000  1.0
  C  C54  1  0.52261000  0.17031000  0.46050000  1.0
  C  C55  1  0.49477000  0.30915000  0.51051000  1.0
  C  C56  1  0.42920000  0.30883000  0.48276000  1.0
  C  C57  1  0.37543000  0.23020000  0.42949000  1.0
  C  C58  1  0.34967000  0.37505000  0.47917000  1.0
  C  C59  1  0.28892000  0.37241000  0.45192000  1.0
  C  C60  1  0.21159000  0.46225000  0.55589000  1.0
  C  C61  1  0.48928000  0.38344000  0.53790000  1.0
  C  C62  1  0.97939000  0.31703000  0.57449000  1.0
  C  C63  1  0.03769000  0.28464000  0.59891000  1.0
  C  C64  1  0.18087000  0.34465000  0.60092000  1.0
  C  C65  1  0.56816000  0.23955000  0.51284000  1.0
  C  C66  1  0.07013000  0.40476000  0.55222000  1.0
  C  C67  1  0.58482000  0.17286000  0.48757000  1.0
  C  C68  1  0.82790000  0.27178000  0.57171000  1.0
  C  C69  1  0.79396000  0.55844000  0.79076000  1.0
  C  C70  1  0.99902000  0.69795000  0.76007000  1.0
  C  C71  1  0.64797000  0.47722000  0.79391000  1.0
  C  C72  1  0.81494000  0.50522000  0.84391000  1.0
  C  C73  1  0.87999000  0.57083000  0.81615000  1.0
  C  C74  1  0.85486000  0.62443000  0.76286000  1.0
  C  C75  1  0.02571000  0.65031000  0.81253000  1.0
  C  C76  1  0.08368000  0.71095000  0.78527000  1.0
  C  C77  1  0.24985000  0.78760000  0.88956000  1.0
  C  C78  1  0.89485000  0.51085000  0.87134000  1.0
  C  C79  1  0.33709000  0.02028000  0.90781000  1.0
  C  C80  1  0.24652000  0.96286000  0.93229000  1.0
  C  C81  1  0.16326000  0.81987000  0.93448000  1.0
  C  C82  1  0.67193000  0.43162000  0.84623000  1.0
  C  C83  1  0.33384000  0.92881000  0.88570000  1.0
  C  C84  1  0.58848000  0.41495000  0.82096000  1.0
  C  C85  1  0.44338000  0.17153000  0.90483000  1.0
  C  C86  1  0.76455000  0.20592000  0.12411000  1.0
  C  C87  1  0.69900000  0.00091000  0.09342000  1.0
  C  C88  1  0.82934000  0.35183000  0.12724000  1.0
  C  C89  1  0.69044000  0.18515000  0.17723000  1.0
  C  C90  1  0.69089000  0.11997000  0.14949000  1.0
  C  C91  1  0.76960000  0.14495000  0.09621000  1.0
  C  C92  1  0.62470000  0.97432000  0.14587000  1.0
  C  C93  1  0.62741000  0.91632000  0.11862000  1.0
  C  C94  1  0.53774000  0.74986000  0.22274000  1.0
  C  C95  1  0.61617000  0.10539000  0.20464000  1.0
  C  C96  1  0.68289000  0.66235000  0.24114000  1.0
  C  C97  1  0.71579000  0.75294000  0.26558000  1.0
  C  C98  1  0.65608000  0.83631000  0.26771000  1.0
  C  C99  1  0.75983000  0.32805000  0.17955000  1.0
  C  C100  1  0.59492000  0.66570000  0.21895000  1.0
  C  C101  1  0.82659000  0.41143000  0.15428000  1.0
  C  C102  1  0.72796000  0.55604000  0.23827000  1.0
  C  C103  1  0.23551000  0.44155000  0.20924000  1.0
  C  C104  1  0.30106000  0.30204000  0.23993000  1.0
  C  C105  1  0.17074000  0.52276000  0.20609000  1.0
  C  C106  1  0.30971000  0.49477000  0.15609000  1.0
  C  C107  1  0.30916000  0.42916000  0.18385000  1.0
  C  C108  1  0.23043000  0.37557000  0.23714000  1.0
  C  C109  1  0.37539000  0.34967000  0.18747000  1.0
  C  C110  1  0.37272000  0.28903000  0.21473000  1.0
  C  C111  1  0.46224000  0.21239000  0.11043000  1.0
  C  C112  1  0.38399000  0.48914000  0.12866000  1.0
  C  C113  1  0.31680000  0.97971000  0.09218000  1.0
  C  C114  1  0.28365000  0.03712000  0.06771000  1.0
  C  C115  1  0.34337000  0.18010000  0.06551000  1.0
  C  C116  1  0.24031000  0.56837000  0.15377000  1.0
  C  C117  1  0.40503000  0.07118000  0.11430000  1.0
  C  C118  1  0.17352000  0.58504000  0.17903000  1.0
  C  C119  1  0.27185000  0.82846000  0.09516000  1.0
  C  C120  1  0.55862000  0.79406000  0.87589000  1.0
  C  C121  1  0.69809000  0.99908000  0.90658000  1.0
  C  C122  1  0.47750000  0.64815000  0.87277000  1.0
  C  C123  1  0.50528000  0.81482000  0.82278000  1.0
  C  C124  1  0.57091000  0.88001000  0.85051000  1.0
  C  C125  1  0.62464000  0.85503000  0.90379000  1.0
  C  C126  1  0.65037000  0.02566000  0.85413000  1.0
  C  C127  1  0.71108000  0.08366000  0.88138000  1.0
  C  C128  1  0.78788000  0.25014000  0.77726000  1.0
  C  C129  1  0.51077000  0.89457000  0.79536000  1.0
  C  C130  1  0.02052000  0.33763000  0.75886000  1.0
  C  C131  1  0.96284000  0.24705000  0.73442000  1.0
  C  C132  1  0.81974000  0.16367000  0.73229000  1.0
  C  C133  1  0.43177000  0.67192000  0.82045000  1.0
  C  C134  1  0.92923000  0.33430000  0.78105000  1.0
  C  C135  1  0.41515000  0.58855000  0.84572000  1.0
  C  C136  1  0.17192000  0.44395000  0.76172000  1.0
  C  C137  1  0.20628000  0.76477000  0.54262000  1.0
  C  C138  1  0.00105000  0.69909000  0.57329000  1.0
  C  C139  1  0.35230000  0.82968000  0.53949000  1.0
  C  C140  1  0.18560000  0.69083000  0.48949000  1.0
  C  C141  1  0.12037000  0.69116000  0.51724000  1.0
  C  C142  1  0.14523000  0.76979000  0.57051000  1.0
  C  C143  1  0.97462000  0.62495000  0.52083000  1.0
  C  C144  1  0.91651000  0.62758000  0.54807000  1.0
  C  C145  1  0.74933000  0.53774000  0.44411000  1.0
  C  C146  1  0.10583000  0.61655000  0.46210000  1.0
  C  C147  1  0.66235000  0.68296000  0.42551000  1.0
  C  C148  1  0.75305000  0.71534000  0.40108000  1.0
  C  C149  1  0.83621000  0.65533000  0.39908000  1.0
  C  C150  1  0.32861000  0.76044000  0.48716000  1.0
  C  C151  1  0.66537000  0.59523000  0.44777000  1.0
  C  C152  1  0.41195000  0.82713000  0.51243000  1.0
  C  C153  1  0.55611000  0.72820000  0.42828000  1.0
  C  C154  1  0.55849000  0.76478000  0.95738000  1.0
  C  C155  1  0.69804000  0.69910000  0.92671000  1.0
  C  C156  1  0.47738000  0.82968000  0.96051000  1.0
  C  C157  1  0.50522000  0.69083000  0.01051000  1.0
  C  C158  1  0.57079000  0.69116000  0.98276000  1.0
  C  C159  1  0.62456000  0.76978000  0.92949000  1.0
  C  C160  1  0.65033000  0.62495000  0.97917000  1.0
  C  C161  1  0.71107000  0.62758000  0.95192000  1.0
  C  C162  1  0.78840000  0.53773000  0.05589000  1.0
  C  C163  1  0.51072000  0.61655000  0.03790000  1.0
  C  C164  1  0.02060000  0.68295000  0.07449000  1.0
  C  C165  1  0.96230000  0.71534000  0.09891000  1.0
  C  C166  1  0.81912000  0.65533000  0.10092000  1.0
  C  C167  1  0.43183000  0.76043000  0.01284000  1.0
  C  C168  1  0.92986000  0.59522000  0.05222000  1.0
  C  C169  1  0.41518000  0.82713000  0.98757000  1.0
  C  C170  1  0.17209000  0.72820000  0.07171000  1.0
  C  C171  1  0.20604000  0.44155000  0.29076000  1.0
  C  C172  1  0.00097000  0.30203000  0.26006000  1.0
  C  C173  1  0.35202000  0.52276000  0.29391000  1.0
  C  C174  1  0.18505000  0.49476000  0.34391000  1.0
  C  C175  1  0.12000000  0.42916000  0.31615000  1.0
  C  C176  1  0.14514000  0.37557000  0.26286000  1.0
  C  C177  1  0.97428000  0.34968000  0.31253000  1.0
  C  C178  1  0.91632000  0.28904000  0.28527000  1.0
  C  C179  1  0.75015000  0.21239000  0.38956000  1.0
  C  C180  1  0.10515000  0.48914000  0.37134000  1.0
  C  C181  1  0.66291000  0.97972000  0.40781000  1.0
  C  C182  1  0.75347000  0.03712000  0.43229000  1.0
  C  C183  1  0.83673000  0.18011000  0.43448000  1.0
  C  C184  1  0.32807000  0.56838000  0.34623000  1.0
  C  C185  1  0.66616000  0.07118000  0.38570000  1.0
  C  C186  1  0.41152000  0.58504000  0.32096000  1.0
  C  C187  1  0.55661000  0.82846000  0.40483000  1.0
  C  C188  1  0.23544000  0.79406000  0.62411000  1.0
  C  C189  1  0.30099000  0.99907000  0.59342000  1.0
  C  C190  1  0.17065000  0.64815000  0.62724000  1.0
  C  C191  1  0.30955000  0.81483000  0.67723000  1.0
  C  C192  1  0.30910000  0.88001000  0.64949000  1.0
  C  C193  1  0.23039000  0.85503000  0.59622000  1.0
  C  C194  1  0.37529000  0.02566000  0.64587000  1.0
  C  C195  1  0.37258000  0.08366000  0.61862000  1.0
  C  C196  1  0.46226000  0.25014000  0.72274000  1.0
  C  C197  1  0.38381000  0.89458000  0.70464000  1.0
  C  C198  1  0.31711000  0.33764000  0.74114000  1.0
  C  C199  1  0.28421000  0.24705000  0.76558000  1.0
  C  C200  1  0.34391000  0.16367000  0.76771000  1.0
  C  C201  1  0.24016000  0.67193000  0.67955000  1.0
  C  C202  1  0.40507000  0.33428000  0.71895000  1.0
  C  C203  1  0.17340000  0.58856000  0.65428000  1.0
  C  C204  1  0.27203000  0.44394000  0.73827000  1.0
  N  N1  1  0.56642000  0.73301000  0.58617000  1.0
  N  N2  1  0.26698000  0.83312000  0.25302000  1.0
  N  N3  1  0.16727000  0.43434000  0.91989000  1.0
  N  N4  1  0.26707000  0.43434000  0.58011000  1.0
  N  N5  1  0.16659000  0.73301000  0.91383000  1.0
  N  N6  1  0.56615000  0.83313000  0.24699000  1.0
  N  N7  1  0.43357000  0.26697000  0.08617000  1.0
  N  N8  1  0.73301000  0.16686000  0.75302000  1.0
  N  N9  1  0.83273000  0.56565000  0.41989000  1.0
  N  N10  1  0.73292000  0.56564000  0.08011000  1.0
  N  N11  1  0.83340000  0.26697000  0.41383000  1.0
  N  N12  1  0.43385000  0.16686000  0.74698000  1.0
  O  O1  1  0.67804000  0.53857000  0.60308000  1.0
  O  O2  1  0.49066000  0.48482000  0.63030000  1.0
  O  O3  1  0.70403000  0.75784000  0.76672000  1.0
  O  O4  1  0.46149000  0.13956000  0.26977000  1.0
  O  O5  1  0.51532000  0.00616000  0.29702000  1.0
  O  O6  1  0.24213000  0.94611000  0.43338000  1.0
  O  O7  1  0.86054000  0.32171000  0.93649000  1.0
  O  O8  1  0.99318000  0.50894000  0.96376000  1.0
  O  O9  1  0.05382000  0.29595000  0.10007000  1.0
  O  O10  1  0.46117000  0.32171000  0.56351000  1.0
  O  O11  1  0.51576000  0.50893000  0.53624000  1.0
  O  O12  1  0.24213000  0.29596000  0.39992000  1.0
  O  O13  1  0.86053000  0.53857000  0.89692000  1.0
  O  O14  1  0.99416000  0.48483000  0.86970000  1.0
  O  O15  1  0.05381000  0.75784000  0.73328000  1.0
  O  O16  1  0.67806000  0.13954000  0.23023000  1.0
  O  O17  1  0.49082000  0.00613000  0.20299000  1.0
  O  O18  1  0.70398000  0.94611000  0.06662000  1.0
  O  O19  1  0.32195000  0.46141000  0.10308000  1.0
  O  O20  1  0.50933000  0.51516000  0.13030000  1.0
  O  O21  1  0.29596000  0.24214000  0.26672000  1.0
  O  O22  1  0.53851000  0.86044000  0.76977000  1.0
  O  O23  1  0.48468000  0.99383000  0.79702000  1.0
  O  O24  1  0.75787000  0.05389000  0.93338000  1.0
  O  O25  1  0.13945000  0.67827000  0.43649000  1.0
  O  O26  1  0.00682000  0.49105000  0.46376000  1.0
  O  O27  1  0.94617000  0.70403000  0.60008000  1.0
  O  O28  1  0.53882000  0.67827000  0.06351000  1.0
  O  O29  1  0.48423000  0.49105000  0.03624000  1.0
  O  O30  1  0.75787000  0.70404000  0.89992000  1.0
  O  O31  1  0.13946000  0.46141000  0.39692000  1.0
  O  O32  1  0.00583000  0.51516000  0.36970000  1.0
  O  O33  1  0.94618000  0.24215000  0.23328000  1.0
  O  O34  1  0.32193000  0.86044000  0.73023000  1.0
  O  O35  1  0.50917000  0.99385000  0.70299000  1.0
  O  O36  1  0.29602000  0.05388000  0.56662000  1.0
