# generated using pymatgen
data_Cr3H21(C2O)17
_symmetry_space_group_name_H-M   'P 1'
_cell_length_a   11.05112000
_cell_length_b   11.17036658
_cell_length_c   18.69254000
_cell_angle_alpha   90.88352110
_cell_angle_beta   90.22660000
_cell_angle_gamma   119.57439254
_symmetry_Int_Tables_number   1
_chemical_formula_structural   Cr3H21(C2O)17
_chemical_formula_sum   'Cr6 H42 C68 O34'
_cell_volume   2006.45420565
_cell_formula_units_Z   2
loop_
 _symmetry_equiv_pos_site_id
 _symmetry_equiv_pos_as_xyz
  1  'x, y, z'
loop_
 _atom_site_type_symbol
 _atom_site_label
 _atom_site_symmetry_multiplicity
 _atom_site_fract_x
 _atom_site_fract_y
 _atom_site_fract_z
 _atom_site_occupancy
  C  C0  1  0.70609500  0.48064000  0.35355000  1
  C  C1  1  0.75126000  0.64748000  0.45325000  1
  C  C2  1  0.54051000  0.98410000  0.03838000  1
  C  C3  1  0.74951000  0.96646000  0.04292000  1
  C  C4  1  0.74983000  0.96262000  0.96810000  1
  C  C5  1  0.48564500  0.07421000  0.95607000  1
  C  C6  1  0.48359000  0.08170000  0.03654000  1
  C  C7  1  0.70732000  0.47824000  0.14796000  1
  C  C8  1  0.12040000  0.35714000  0.54411000  1
  C  C9  1  0.23398000  0.52532000  0.85378000  1
  C  C10  1  0.10325000  0.45472000  0.14820000  1
  C  C11  1  0.64477000  0.54566000  0.85331000  1
  C  C12  1  0.68154000  0.05784000  0.14739000  1
  C  C13  1  0.62225000  0.93744000  0.85436000  1
  C  C14  1  0.13382000  0.47212000  0.58247000  1
  C  C15  1  0.65825500  0.52403000  0.41738000  1
  C  C16  1  0.07881000  0.54714000  0.55124000  1
  C  C17  1  0.53419000  0.43813000  0.45135500  1
  C  C18  1  0.03087500  0.52111000  0.47984000  1
  C  C19  1  0.15725000  0.69662000  0.54046000  1
  C  C20  1  0.51342500  0.46254000  0.52272500  1
  C  C21  1  0.90143500  0.20354000  0.66515000  1
  C  C22  1  0.76383000  0.83486000  0.32872500  1
  C  C23  1  0.47451000  0.28920000  0.46296000  1
  C  C24  1  0.10073500  0.66967000  0.46455000  1
  C  C25  1  0.44992000  0.31486000  0.54010000  1
  C  C26  1  0.22521000  0.51896000  0.64649000  1
  C  C27  1  0.04171500  0.42141000  0.43845000  1
  C  C28  1  0.61809000  0.57334000  0.56166000  1
  C  C29  1  0.65934000  0.00316000  0.57420500  1
  C  C30  1  0.66014500  0.98840000  0.42308000  1
  C  C31  1  0.90109000  0.04852000  0.57806000  1
  C  C32  1  0.87929500  0.97500000  0.43037000  1
  C  C33  1  0.00139500  0.02862000  0.54502000  1
  C  C34  1  0.99144000  0.99364000  0.47282000  1
  C  C35  1  0.77222000  0.99316000  0.46284000  1
  C  C36  1  0.77725000  0.01522000  0.53904000  1
  C  C37  1  0.54168000  0.96879000  0.45970000  1
  C  C38  1  0.55223500  0.00281000  0.53286000  1
  C  C39  1  0.03194000  0.41428000  0.35993000  1
  C  C40  1  0.61765000  0.58452000  0.63988000  1
  C  C41  1  0.41663000  0.93140000  0.42269000  1
  C  C42  1  0.07464000  0.33164000  0.47368000  1
  C  C43  1  0.45129500  0.03075000  0.56257500  1
  C  C44  1  0.31970500  0.96079000  0.45183000  1
  C  C45  1  0.33560500  0.00806000  0.52225500  1
  C  C46  1  0.19419000  0.51580000  0.92898000  1
  C  C47  1  0.67991000  0.49456000  0.07378000  1
  C  C48  1  0.73103000  0.67263000  0.52397000  1
  C  C49  1  0.17630000  0.39880000  0.96297000  1
  C  C50  1  0.79776000  0.56178000  0.03121000  1
  C  C51  1  0.16475500  0.38675000  0.03553000  1
  C  C52  1  0.78842000  0.56616000  0.95842000  1
  C  C53  1  0.21578000  0.62224000  0.04819000  1
  C  C54  1  0.54078000  0.40970000  0.96465000  1
  C  C55  1  0.21977000  0.63236000  0.97300000  1
  C  C56  1  0.54901000  0.41496000  0.03975000  1
  C  C57  1  0.06942000  0.25262000  0.94850000  1
  C  C58  1  0.91458000  0.70680000  0.03661000  1
  C  C59  1  0.05465000  0.23878000  0.02868000  1
  C  C60  1  0.90397000  0.71152000  0.95627000  1
  C  C61  1  0.17170000  0.49262000  0.07913000  1
  C  C62  1  0.66027500  0.49922000  0.92360000  1
  C  C63  1  0.68361000  0.05716000  0.35280000  1
  C  C64  1  0.62286000  0.93998000  0.64611000  1
  C  C65  1  0.64833000  0.97582000  0.92897000  1
  C  C66  1  0.65129000  0.99032000  0.07809000  1
  C  C67  1  0.54094000  0.97830000  0.96554000  1
  Cr  Cr68  1  0.62246000  0.22828000  0.25037000  1
  Cr  Cr69  1  0.70826000  0.77514000  0.75015000  1
  Cr  Cr70  1  0.93312000  0.22486000  0.24985000  1
  Cr  Cr71  1  0.39418000  0.77172000  0.74963000  1
  Cr  Cr72  1  0.93654000  0.53902000  0.25128000  1
  Cr  Cr73  1  0.39752000  0.46098000  0.74872000  1
  H  H74  1  0.08195000  0.25134000  0.44478000  1
  H  H75  1  0.01283000  0.71298000  0.05509000  1
  H  H76  1  0.11454000  0.19210000  0.92430000  1
  H  H77  1  0.97524000  0.24188000  0.92073000  1
  H  H78  1  0.88543000  0.77618000  0.06571000  1
  H  H79  1  0.95275000  0.22310000  0.04737000  1
  H  H80  1  0.87002000  0.78434000  0.93922000  1
  H  H81  1  0.81169500  0.76264000  0.55118000  1
  H  H82  1  0.08879000  0.16836000  0.05096000  1
  H  H83  1  0.99473000  0.72008000  0.92759000  1
  H  H84  1  0.83441000  0.96712000  0.07232000  1
  H  H85  1  0.83216500  0.95609000  0.94086000  1
  H  H86  1  0.38029500  0.02402000  0.93097000  1
  H  H87  1  0.55882000  0.18542000  0.05802000  1
  H  H88  1  0.56336000  0.17210000  0.93153000  1
  H  H89  1  0.37684000  0.03588000  0.05849000  1
  H  H90  1  0.15752000  0.29312000  0.56634000  1
  H  H91  1  0.84648000  0.72038000  0.42866000  1
  H  H92  1  0.12201000  0.75495000  0.57511000  1
  H  H93  1  0.37850500  0.22670000  0.43040000  1
  H  H94  1  0.02738000  0.70760000  0.45530000  1
  H  H95  1  0.33868000  0.26841000  0.55309500  1
  H  H96  1  0.17975500  0.69646000  0.42247000  1
  H  H97  1  0.23112500  0.94155000  0.41949500  1
  H  H98  1  0.51302500  0.29628000  0.58013000  1
  H  H99  1  0.09029000  0.04669000  0.57662000  1
  H  H100  1  0.07395000  0.98472000  0.44852000  1
  H  H101  1  0.46216500  0.07323000  0.61612000  1
  H  H102  1  0.39705500  0.88617000  0.36924000  1
  H  H103  1  0.25917000  0.02698000  0.54597500  1
  H  H104  1  0.27240000  0.72530000  0.13804000  1
  H  H105  1  0.42695000  0.27766000  0.89203000  1
  H  H106  1  0.19584000  0.74106000  0.90073000  1
  H  H107  1  0.44117000  0.38010000  0.12647000  1
  H  H108  1  0.32704000  0.69278000  0.51049500  1
  H  H109  1  0.65592500  0.30438000  0.48723500  1
  H  H110  1  0.87835000  0.24834000  0.61776000  1
  H  H111  1  0.99273500  0.28623000  0.69396000  1
  H  H112  1  0.81453500  0.16900000  0.70328000  1
  H  H113  1  0.67753000  0.78166000  0.36695500  1
  H  H114  1  0.79036000  0.75982000  0.30521000  1
  H  H115  1  0.72536000  0.86892000  0.28284500  1
  O  O116  1  0.59134000  0.08596000  0.33008000  1
  O  O117  1  0.73867000  0.66392000  0.83013000  1
  O  O118  1  0.07475000  0.33608000  0.16987000  1
  O  O119  1  0.80382000  0.10880000  0.17514000  1
  O  O120  1  0.69502000  0.89120000  0.82486000  1
  O  O121  1  0.83071000  0.33072000  0.25050000  1
  O  O122  1  0.49999000  0.66928000  0.74950000  1
  O  O123  1  0.50538000  0.91404000  0.66992000  1
  O  O124  1  0.63511000  0.35710000  0.32539000  1
  O  O125  1  0.27801000  0.64290000  0.67461000  1
  O  O126  1  0.82603000  0.56936000  0.33190000  1
  O  O127  1  0.25667000  0.43064000  0.66810000  1
  O  O128  1  0.05324000  0.52566000  0.32547000  1
  O  O129  1  0.52758000  0.47434000  0.67453000  1
  O  O130  1  0.07455000  0.33458000  0.33042000  1
  O  O131  1  0.73997000  0.66542000  0.66958000  1
  O  O132  1  0.80365000  0.10742000  0.32396000  1
  O  O133  1  0.69623000  0.89258000  0.67604000  1
  O  O134  1  0.59153000  0.08746000  0.16953000  1
  O  O135  1  0.50407000  0.91254000  0.83047000  1
  O  O136  1  0.63529000  0.35848000  0.17656000  1
  O  O137  1  0.27681000  0.64152000  0.82344000  1
  O  O138  1  0.82622000  0.57086000  0.17136000  1
  O  O139  1  0.05343000  0.52706000  0.17664000  1
  O  O140  1  0.25536000  0.42914000  0.82864000  1
  O  O141  1  0.24807000  0.73862000  0.08885000  1
  O  O142  1  0.41220500  0.32374000  0.93408000  1
  O  O143  1  0.24917000  0.75742000  0.94570000  1
  O  O144  1  0.42747000  0.34108000  0.07727000  1
  O  O145  1  0.52637000  0.47294000  0.82336000  1
  O  O146  1  0.30131000  0.74500000  0.54496000  1
  O  O147  1  0.57449000  0.24653000  0.45552500  1
  O  O148  1  0.92848500  0.09450000  0.64934000  1
  O  O149  1  0.88690000  0.94738000  0.35785000  1
