# generated using pymatgen
data_Cu3H26C42(NO3)4
_symmetry_space_group_name_H-M   'P 1'
_cell_length_a   9.91755000
_cell_length_b   15.72208000
_cell_length_c   21.04949000
_cell_angle_alpha   99.67827000
_cell_angle_beta   92.78606000
_cell_angle_gamma   105.83623000
_symmetry_Int_Tables_number   1
_chemical_formula_structural   Cu3H26C42(NO3)4
_chemical_formula_sum   'Cu6 H52 C84 N8 O24'
_cell_volume   3097.13327007
_cell_formula_units_Z   2
loop_
 _symmetry_equiv_pos_site_id
 _symmetry_equiv_pos_as_xyz
  1  'x, y, z'
loop_
 _atom_site_type_symbol
 _atom_site_label
 _atom_site_symmetry_multiplicity
 _atom_site_fract_x
 _atom_site_fract_y
 _atom_site_fract_z
 _atom_site_occupancy
  Cu  Cu0  1  0.36731000  0.79769000  0.54476000  1
  Cu  Cu1  1  0.94808000  0.08979000  0.36942000  1
  Cu  Cu2  1  0.94583000  0.10015000  0.80232000  1
  Cu  Cu3  1  0.63175000  0.20406000  0.45685000  1
  Cu  Cu4  1  0.05232000  0.90939000  0.63066000  1
  Cu  Cu5  1  0.05570000  0.90090000  0.19764000  1
  H  H6  1  0.28447000  0.32692000  0.32563000  1
  H  H7  1  0.51904000  0.44257000  0.35104000  1
  H  H8  1  0.55644000  0.37339000  0.53977000  1
  H  H9  1  0.32263000  0.25960000  0.51347000  1
  H  H10  1  0.75046000  0.48631000  0.55702000  1
  H  H11  1  0.72072000  0.51625000  0.41709000  1
  H  H12  1  0.19823000  0.69609000  0.63097000  1
  H  H13  1  0.95792000  0.58678000  0.62302000  1
  H  H14  1  0.91787000  0.59838000  0.41927000  1
  H  H15  1  0.15655000  0.70779000  0.43670000  1
  H  H16  1  0.30934000  0.17301000  0.93180000  1
  H  H17  1  0.49399000  0.17102000  0.01589000  1
  H  H18  1  0.22796000  0.92196000  0.05402000  1
  H  H19  1  0.04974000  0.92076000  0.96625000  1
  H  H20  1  0.58688000  0.09611000  0.08520000  1
  H  H21  1  0.36665000  0.97727000  0.15551000  1
  H  H22  1  0.93789000  0.12677000  0.23861000  1
  H  H23  1  0.75814000  0.10137000  0.14642000  1
  H  H24  1  0.45115000  0.95732000  0.25901000  1
  H  H25  1  0.64269000  0.98722000  0.34598000  1
  H  H26  1  0.89313000  0.07043000  0.57780000  1
  H  H27  1  0.18489000  0.09935000  0.73269000  1
  H  H28  1  0.38631000  0.20274000  0.69217000  1
  H  H29  1  0.39267000  0.36655000  0.70275000  1
  H  H30  1  0.19110000  0.41577000  0.74947000  1
  H  H31  1  0.99506000  0.30146000  0.78519000  1
  H  H32  1  0.71444000  0.67371000  0.67445000  1
  H  H33  1  0.47980000  0.55795000  0.64892000  1
  H  H34  1  0.44249000  0.62696000  0.46028000  1
  H  H35  1  0.67629000  0.74058000  0.48635000  1
  H  H36  1  0.24827000  0.51372000  0.44328000  1
  H  H37  1  0.28012000  0.48325000  0.58295000  1
  H  H38  1  0.80081000  0.30406000  0.37003000  1
  H  H39  1  0.04195000  0.41270000  0.37763000  1
  H  H40  1  0.08300000  0.40131000  0.58134000  1
  H  H41  1  0.84381000  0.29239000  0.56429000  1
  H  H42  1  0.69149000  0.82792000  0.06837000  1
  H  H43  1  0.50684000  0.83028000  0.98438000  1
  H  H44  1  0.77399000  0.07843000  0.94566000  1
  H  H45  1  0.95274000  0.07918000  0.03315000  1
  H  H46  1  0.41369000  0.90618000  0.91555000  1
  H  H47  1  0.63379000  0.02338000  0.84421000  1
  H  H48  1  0.06244000  0.87238000  0.76190000  1
  H  H49  1  0.24276000  0.89877000  0.85398000  1
  H  H50  1  0.54785000  0.04396000  0.74106000  1
  H  H51  1  0.35626000  0.01244000  0.65415000  1
  H  H52  1  0.10813000  0.92957000  0.42283000  1
  H  H53  1  0.81510000  0.90131000  0.26699000  1
  H  H54  1  0.61554000  0.79802000  0.30875000  1
  H  H55  1  0.60964000  0.63433000  0.29795000  1
  H  H56  1  0.81044000  0.58519000  0.25027000  1
  H  H57  1  0.00537000  0.69959000  0.21391000  1
  C  C58  1  0.15400000  0.21638000  0.40137000  1
  C  C59  1  0.28935000  0.28781000  0.41840000  1
  C  C60  1  0.34433000  0.33967000  0.37262000  1
  C  C61  1  0.47497000  0.40358000  0.38712000  1
  C  C62  1  0.55382000  0.41794000  0.44755000  1
  C  C63  1  0.49709000  0.36514000  0.49320000  1
  C  C64  1  0.36643000  0.30114000  0.47881000  1
  C  C65  1  0.77924000  0.51377000  0.51380000  1
  C  C66  1  0.68989000  0.48543000  0.45884000  1
  C  C67  1  0.13152000  0.67085000  0.58531000  1
  C  C68  1  0.99851000  0.61008000  0.57998000  1
  C  C69  1  0.91611000  0.58019000  0.51980000  1
  C  C70  1  0.97487000  0.61705000  0.46728000  1
  C  C71  1  0.10791000  0.67761000  0.47595000  1
  C  C72  1  0.06150000  0.05175000  0.89346000  1
  C  C73  1  0.16802000  0.04756000  0.94403000  1
  C  C74  1  0.29393000  0.11805000  0.95836000  1
  C  C75  1  0.39602000  0.11676000  0.00535000  1
  C  C76  1  0.37361000  0.04735000  0.04165000  1
  C  C77  1  0.24706000  0.97655000  0.02688000  1
  C  C78  1  0.14678000  0.97574000  0.97790000  1
  C  C79  1  0.48369000  0.05329000  0.09178000  1
  C  C80  1  0.47004000  0.01577000  0.14535000  1
  C  C81  1  0.82829000  0.09109000  0.24123000  1
  C  C82  1  0.72636000  0.07620000  0.19002000  1
  C  C83  1  0.58534000  0.02893000  0.19488000  1
  C  C84  1  0.55742000  0.99490000  0.25202000  1
  C  C85  1  0.66411000  0.01292000  0.30166000  1
  C  C86  1  0.54326000  0.85543000  0.66149000  1
  C  C87  1  0.61336000  0.91321000  0.61443000  1
  C  C88  1  0.74062000  0.98202000  0.62494000  1
  C  C89  1  0.82799000  0.01323000  0.68901000  1
  C  C90  1  0.79254000  0.01843000  0.57154000  1
  C  C91  1  0.78399000  0.02890000  0.45457000  1
  C  C92  1  0.72107000  0.98620000  0.50913000  1
  C  C93  1  0.59389000  0.91754000  0.50220000  1
  C  C94  1  0.49905000  0.86673000  0.44087000  1
  C  C95  1  0.19121000  0.16996000  0.73546000  1
  C  C96  1  0.30365000  0.22854000  0.71331000  1
  C  C97  1  0.30531000  0.31855000  0.71854000  1
  C  C98  1  0.19369000  0.34622000  0.74453000  1
  C  C99  1  0.08442000  0.28315000  0.76495000  1
  C  C100  1  0.84655000  0.78293000  0.59839000  1
  C  C101  1  0.71035000  0.71219000  0.58143000  1
  C  C102  1  0.65497000  0.66072000  0.62736000  1
  C  C103  1  0.52431000  0.59687000  0.61289000  1
  C  C104  1  0.44569000  0.58227000  0.55242000  1
  C  C105  1  0.50214000  0.63513000  0.50676000  1
  C  C106  1  0.63291000  0.69905000  0.52109000  1
  C  C107  1  0.22034000  0.48603000  0.48648000  1
  C  C108  1  0.31008000  0.51443000  0.54127000  1
  C  C109  1  0.86802000  0.32910000  0.41556000  1
  C  C110  1  0.00124000  0.38947000  0.42067000  1
  C  C111  1  0.08387000  0.41942000  0.48077000  1
  C  C112  1  0.02560000  0.38271000  0.53343000  1
  C  C113  1  0.89235000  0.32246000  0.52497000  1
  C  C114  1  0.94071000  0.94863000  0.10614000  1
  C  C115  1  0.83371000  0.95300000  0.05583000  1
  C  C116  1  0.70730000  0.88281000  0.04174000  1
  C  C117  1  0.60512000  0.88430000  0.99481000  1
  C  C118  1  0.62767000  0.95361000  0.95841000  1
  C  C119  1  0.75476000  0.02398000  0.97291000  1
  C  C120  1  0.85522000  0.02457000  0.02174000  1
  C  C121  1  0.51721000  0.94819000  0.90857000  1
  C  C122  1  0.53048000  0.98538000  0.85484000  1
  C  C123  1  0.17173000  0.90865000  0.75923000  1
  C  C124  1  0.27400000  0.92420000  0.81041000  1
  C  C125  1  0.41468000  0.97209000  0.80549000  1
  C  C126  1  0.44193000  0.00605000  0.74828000  1
  C  C127  1  0.33497000  0.98724000  0.69866000  1
  C  C128  1  0.45640000  0.14607000  0.33972000  1
  C  C129  1  0.38703000  0.08756000  0.38657000  1
  C  C130  1  0.26026000  0.01820000  0.37568000  1
  C  C131  1  0.17298000  0.98714000  0.31144000  1
  C  C132  1  0.20888000  0.98143000  0.42904000  1
  C  C133  1  0.21621000  0.97059000  0.54567000  1
  C  C134  1  0.28090000  0.01309000  0.49142000  1
  C  C135  1  0.40852000  0.08157000  0.49863000  1
  C  C136  1  0.50517000  0.13121000  0.56001000  1
  C  C137  1  0.80927000  0.83079000  0.26429000  1
  C  C138  1  0.69757000  0.77220000  0.28691000  1
  C  C139  1  0.69634000  0.68228000  0.28167000  1
  C  C140  1  0.80753000  0.65466000  0.25518000  1
  C  C141  1  0.91620000  0.71778000  0.23443000  1
  N  N142  1  0.18645000  0.70325000  0.53392000  1
  N  N143  1  0.79742000  0.06133000  0.29701000  1
  N  N144  1  0.54686000  0.88662000  0.55481000  1
  N  N145  1  0.08376000  0.19657000  0.76090000  1
  N  N146  1  0.81334000  0.29707000  0.46714000  1
  N  N147  1  0.20208000  0.93834000  0.70338000  1
  N  N148  1  0.45401000  0.11357000  0.44616000  1
  N  N149  1  0.91658000  0.80433000  0.23856000  1
  O  O150  1  0.11196000  0.15961000  0.43860000  1
  O  O151  1  0.07831000  0.20793000  0.34822000  1
  O  O152  1  0.97100000  0.98361000  0.86132000  1
  O  O153  1  0.06794000  0.13197000  0.88209000  1
  O  O154  1  0.60644000  0.86120000  0.71467000  1
  O  O155  1  0.41914000  0.80059000  0.63854000  1
  O  O156  1  0.78829000  0.06392000  0.73459000  1
  O  O157  1  0.94375000  0.99507000  0.69510000  1
  O  O158  1  0.86078000  0.99112000  0.41922000  1
  O  O159  1  0.76643000  0.10361000  0.44815000  1
  O  O160  1  0.52918000  0.88643000  0.38745000  1
  O  O161  1  0.39143000  0.80264000  0.45001000  1
  O  O162  1  0.88788000  0.84066000  0.56175000  1
  O  O163  1  0.92368000  0.78977000  0.65084000  1
  O  O164  1  0.03272000  0.01654000  0.13784000  1
  O  O165  1  0.93333000  0.86850000  0.11780000  1
  O  O166  1  0.39424000  0.13874000  0.28589000  1
  O  O167  1  0.57873000  0.20282000  0.36320000  1
  O  O168  1  0.21291000  0.93688000  0.26570000  1
  O  O169  1  0.05704000  0.00499000  0.30519000  1
  O  O170  1  0.13999000  0.00901000  0.58084000  1
  O  O171  1  0.23136000  0.89525000  0.55205000  1
  O  O172  1  0.47946000  0.10797000  0.61277000  1
  O  O173  1  0.60942000  0.19811000  0.55180000  1
