# generated using pymatgen
data_ZnH8C12NO4
_symmetry_space_group_name_H-M   'P 1'
_cell_length_a   9.38900000
_cell_length_b   11.84545611
_cell_length_c   17.03000000
_cell_angle_alpha   108.26949981
_cell_angle_beta   90.00000000
_cell_angle_gamma   113.34784425
_symmetry_Int_Tables_number   1
_chemical_formula_structural   ZnH8C12NO4
_chemical_formula_sum   'Zn4 H32 C48 N4 O16'
_cell_volume   1634.42690983
_cell_formula_units_Z   4
loop_
 _symmetry_equiv_pos_site_id
 _symmetry_equiv_pos_as_xyz
  1  'x, y, z'
loop_
 _atom_site_type_symbol
 _atom_site_label
 _atom_site_symmetry_multiplicity
 _atom_site_fract_x
 _atom_site_fract_y
 _atom_site_fract_z
 _atom_site_occupancy
  C  C1  1  0.71931000  0.17582000  0.73499000  1.0
  C  C2  1  0.65908000  0.26162000  0.71082000  1.0
  C  C3  1  0.58396000  0.22012000  0.63015000  1.0
  C  C4  1  0.52022000  0.29684000  0.60913000  1.0
  C  C5  1  0.53613000  0.41406000  0.66711000  1.0
  C  C6  1  0.61369000  0.45838000  0.74880000  1.0
  C  C7  1  0.67299000  0.37918000  0.77031000  1.0
  C  C8  1  0.69492000  0.62624000  0.89154000  1.0
  C  C9  1  0.59368000  0.55796000  0.94634000  1.0
  C  C10  1  0.65671000  0.52462000  0.00465000  1.0
  C  C11  1  0.43491000  0.53222000  0.94256000  1.0
  C  C12  1  0.43189000  0.25038000  0.52309000  1.0
  C  C25  1  0.54349000  0.82418000  0.76501000  1.0
  C  C26  1  0.39746000  0.73838000  0.78918000  1.0
  C  C27  1  0.36384000  0.77988000  0.86985000  1.0
  C  C28  1  0.22338000  0.70316000  0.89087000  1.0
  C  C29  1  0.12207000  0.58594000  0.83289000  1.0
  C  C30  1  0.15531000  0.54162000  0.75120000  1.0
  C  C31  1  0.29381000  0.62082000  0.72969000  1.0
  C  C32  1  0.06868000  0.37376000  0.60846000  1.0
  C  C33  1  0.03572000  0.44204000  0.55366000  1.0
  C  C34  1  0.13209000  0.47538000  0.49535000  1.0
  C  C35  1  0.90269000  0.46778000  0.55744000  1.0
  C  C36  1  0.18151000  0.74962000  0.97691000  1.0
  C  C49  1  0.28069000  0.82418000  0.26501000  1.0
  C  C50  1  0.34092000  0.73838000  0.28918000  1.0
  C  C51  1  0.41604000  0.77988000  0.36985000  1.0
  C  C52  1  0.47978000  0.70316000  0.39087000  1.0
  C  C53  1  0.46387000  0.58594000  0.33289000  1.0
  C  C54  1  0.38631000  0.54162000  0.25120000  1.0
  C  C55  1  0.32701000  0.62082000  0.22969000  1.0
  C  C56  1  0.30508000  0.37376000  0.10846000  1.0
  C  C57  1  0.40632000  0.44204000  0.05366000  1.0
  C  C58  1  0.34329000  0.47538000  0.99535000  1.0
  C  C59  1  0.56509000  0.46778000  0.05744000  1.0
  C  C60  1  0.56811000  0.74962000  0.47691000  1.0
  C  C73  1  0.45651000  0.17582000  0.23499000  1.0
  C  C74  1  0.60254000  0.26162000  0.21082000  1.0
  C  C75  1  0.63616000  0.22012000  0.13015000  1.0
  C  C76  1  0.77662000  0.29684000  0.10913000  1.0
  C  C77  1  0.87793000  0.41406000  0.16711000  1.0
  C  C78  1  0.84469000  0.45838000  0.24880000  1.0
  C  C79  1  0.70619000  0.37918000  0.27031000  1.0
  C  C80  1  0.93132000  0.62624000  0.39154000  1.0
  C  C81  1  0.96428000  0.55796000  0.44634000  1.0
  C  C82  1  0.86791000  0.52462000  0.50465000  1.0
  C  C83  1  0.09731000  0.53222000  0.44256000  1.0
  C  C84  1  0.81849000  0.25038000  0.02309000  1.0
  H  H1  1  0.57640000  0.14240000  0.59070000  1.0
  H  H2  1  0.49470000  0.46500000  0.65190000  1.0
  H  H3  1  0.72190000  0.40480000  0.82440000  1.0
  H  H4  1  0.71670000  0.71840000  0.91420000  1.0
  H  H5  1  0.79430000  0.61960000  0.89490000  1.0
  H  H6  1  0.76220000  0.54060000  0.00840000  1.0
  H  H7  1  0.38980000  0.55360000  0.90400000  1.0
  H  H8  1  0.59880000  0.62480000  0.78600000  1.0
  H  H17  1  0.43400000  0.85760000  0.90930000  1.0
  H  H18  1  0.02970000  0.53500000  0.84810000  1.0
  H  H19  1  0.31710000  0.59520000  0.67560000  1.0
  H  H20  1  0.99830000  0.28160000  0.58580000  1.0
  H  H21  1  0.17470000  0.38040000  0.60510000  1.0
  H  H22  1  0.22160000  0.45940000  0.49160000  1.0
  H  H23  1  0.83620000  0.44640000  0.59600000  1.0
  H  H24  1  0.97400000  0.37520000  0.71400000  1.0
  H  H33  1  0.42360000  0.85760000  0.40930000  1.0
  H  H34  1  0.50530000  0.53500000  0.34810000  1.0
  H  H35  1  0.27810000  0.59520000  0.17560000  1.0
  H  H36  1  0.28330000  0.28160000  0.08580000  1.0
  H  H37  1  0.20570000  0.38040000  0.10510000  1.0
  H  H38  1  0.23780000  0.45940000  0.99160000  1.0
  H  H39  1  0.61020000  0.44640000  0.09600000  1.0
  H  H40  1  0.40120000  0.37520000  0.21400000  1.0
  H  H49  1  0.56600000  0.14240000  0.09070000  1.0
  H  H50  1  0.97030000  0.46500000  0.15190000  1.0
  H  H51  1  0.68290000  0.40480000  0.32440000  1.0
  H  H52  1  0.00170000  0.71840000  0.41420000  1.0
  H  H53  1  0.82530000  0.61960000  0.39490000  1.0
  H  H54  1  0.77840000  0.54060000  0.50840000  1.0
  H  H55  1  0.16380000  0.55360000  0.40400000  1.0
  H  H56  1  0.02600000  0.62480000  0.28600000  1.0
  N  N1  1  0.62952000  0.57704000  0.80420000  1.0
  N  N3  1  0.05248000  0.42296000  0.69580000  1.0
  N  N5  1  0.37048000  0.42296000  0.19580000  1.0
  N  N7  1  0.94752000  0.57704000  0.30420000  1.0
  O  O1  1  0.76767000  0.20946000  0.81067000  1.0
  O  O2  1  0.72258000  0.08096000  0.67992000  1.0
  O  O3  1  0.42286000  0.14092000  0.47395000  1.0
  O  O4  1  0.37195000  0.31430000  0.50325000  1.0
  O  O9  1  0.55821000  0.79054000  0.68933000  1.0
  O  O10  1  0.64162000  0.91904000  0.82008000  1.0
  O  O11  1  0.28194000  0.85908000  0.02605000  1.0
  O  O12  1  0.05765000  0.68570000  0.99675000  1.0
  O  O17  1  0.23233000  0.79054000  0.18933000  1.0
  O  O18  1  0.27742000  0.91904000  0.32008000  1.0
  O  O19  1  0.57714000  0.85908000  0.52605000  1.0
  O  O20  1  0.62805000  0.68570000  0.49675000  1.0
  O  O25  1  0.44179000  0.20946000  0.31067000  1.0
  O  O26  1  0.35838000  0.08096000  0.17992000  1.0
  O  O27  1  0.71806000  0.14092000  0.97395000  1.0
  O  O28  1  0.94235000  0.31430000  0.00325000  1.0
  Zn  Zn1  1  0.79908000  0.10288000  0.86925000  1.0
  Zn  Zn3  1  0.69620000  0.89712000  0.63075000  1.0
  Zn  Zn5  1  0.20092000  0.89712000  0.13075000  1.0
  Zn  Zn7  1  0.30380000  0.10288000  0.36925000  1.0
