# generated using pymatgen
data_H22C39(N5O2)2
_symmetry_space_group_name_H-M   'P 1'
_cell_length_a   32.99990000
_cell_length_b   32.99990000
_cell_length_c   47.06960000
_cell_angle_alpha   90.00000000
_cell_angle_beta   90.00000000
_cell_angle_gamma   90.00000000
_symmetry_Int_Tables_number   1
_chemical_formula_structural   H22C39(N5O2)2
_chemical_formula_sum   'H176 C312 N80 O32'
_cell_volume   51258.48374111
_cell_formula_units_Z   8
loop_
 _symmetry_equiv_pos_site_id
 _symmetry_equiv_pos_as_xyz
  1  'x, y, z'
loop_
 _atom_site_type_symbol
 _atom_site_label
 _atom_site_symmetry_multiplicity
 _atom_site_fract_x
 _atom_site_fract_y
 _atom_site_fract_z
 _atom_site_occupancy
  H  11  1  0.13161100  0.10710600  0.09298800  1
  H  12  1  0.13141300  0.05525900  0.17191500  1
  H  15  1  0.08710200  0.10515800  0.05348700  1
  H  16  1  0.08530200  0.05638500  0.21035600  1
  H  25  1  0.07831500  0.14217500  0.27314500  1
  H  28  1  0.08989600  0.16753800  0.20306200  1
  H  32  1  0.16639600  0.19191500  0.11983000  1
  H  43  1  0.24008100  0.10703300  0.17272600  1
  H  44  1  0.24120600  0.05651800  0.09333000  1
  H  46  1  0.28477100  0.10499500  0.21207500  1
  H  48  1  0.28774200  0.05880400  0.05514400  1
  H  68  1  0.63283700  0.05362500  0.67196100  1
  H  69  1  0.74201600  0.05300000  0.59273600  1
  H  70  1  0.63311000  0.10405200  0.59251500  1
  H  71  1  0.74220400  0.10488700  0.67169300  1
  H  76  1  0.78655000  0.05467600  0.55327900  1
  H  77  1  0.58676500  0.05584600  0.71052700  1
  H  78  1  0.78818000  0.10348400  0.71026200  1
  H  80  1  0.58865200  0.10172600  0.55305000  1
  H  92  1  0.58036800  0.14384000  0.77193000  1
  H  105  1  0.29355700  0.14674800  0.99376600  1
  H  111  1  0.79527700  0.01753200  0.77275900  1
  H  124  1  0.28160700  0.16973800  0.06315600  1
  H  127  1  0.78233800  0.16562000  0.56140100  1
  H  128  1  0.59212800  0.16672400  0.70217800  1
  H  140  1  0.92253500  0.17433400  0.53431800  1
  H  144  1  0.20450500  0.19195200  0.14637400  1
  H  145  1  0.70675000  0.18935900  0.64514500  1
  H  146  1  0.66845900  0.18923100  0.61872700  1
  H  149  1  0.09202600  0.99427400  0.06156600  1
  H  150  1  0.13520500  0.96080400  0.09431200  1
  H  151  1  0.13324300  0.20159600  0.17069800  1
  H  164  1  0.13461900  0.46064000  0.59520200  1
  H  165  1  0.09245400  0.49412200  0.56184300  1
  H  166  1  0.13294500  0.60694600  0.59270400  1
  H  167  1  0.13203700  0.55636400  0.67246200  1
  H  168  1  0.09215100  0.66964900  0.70286000  1
  H  169  1  0.13549300  0.70262800  0.66992800  1
  H  171  1  0.08938800  0.60498000  0.55274600  1
  H  173  1  0.08676200  0.55882200  0.71144900  1
  H  177  1  0.02692900  0.42121600  0.45574700  1
  H  178  1  0.05936500  0.37969100  0.42175000  1
  H  179  1  0.05869000  0.27879600  0.34612200  1
  H  180  1  0.02566600  0.23674000  0.31274800  1
  H  182  1  0.04807700  0.34862500  0.37076000  1
  H  183  1  0.04838000  0.31007600  0.39703800  1
  H  186  1  0.02451600  0.92173200  0.95638000  1
  H  187  1  0.05736000  0.87978900  0.92284900  1
  H  188  1  0.05777900  0.77958300  0.84683600  1
  H  189  1  0.02536400  0.73887700  0.81237200  1
  H  191  1  0.04716100  0.84879800  0.87187600  1
  H  192  1  0.04627300  0.81011600  0.89804800  1
  H  208  1  0.16754400  0.97083200  0.14531700  1
  H  209  1  0.16677000  0.47119500  0.64637700  1
  H  210  1  0.16820100  0.69165900  0.61902200  1
  H  216  1  0.23829400  0.96073800  0.17006600  1
  H  217  1  0.28084200  0.99411700  0.20324800  1
  H  218  1  0.23765000  0.20279400  0.09565900  1
  H  219  1  0.20601600  0.97138000  0.11903100  1
  H  223  1  0.73933700  0.19932200  0.59413600  1
  H  224  1  0.63562500  0.19991500  0.66948800  1
  H  225  1  0.59296500  0.99093200  0.56197900  1
  H  226  1  0.63594300  0.95777100  0.59504500  1
  H  227  1  0.73973700  0.95856500  0.67044200  1
  H  228  1  0.78321600  0.99242000  0.70283200  1
  H  230  1  0.66850700  0.96858000  0.64602900  1
  H  231  1  0.70678600  0.96834100  0.61960600  1
  H  244  1  0.28106600  0.49395200  0.70366100  1
  H  245  1  0.23771300  0.46051900  0.67099000  1
  H  246  1  0.24140100  0.60682200  0.67235600  1
  H  247  1  0.24138800  0.55505800  0.59345800  1
  H  248  1  0.23942400  0.70139200  0.59461800  1
  H  249  1  0.28266600  0.66734600  0.56217400  1
  H  250  1  0.20520200  0.47059500  0.62006300  1
  H  251  1  0.20641000  0.69178000  0.64549600  1
  H  254  1  0.28594800  0.60482200  0.71181300  1
  H  255  1  0.28693300  0.55627100  0.55463700  1
  H  280  1  0.59154600  0.66573700  0.20490500  1
  H  281  1  0.63432200  0.69918600  0.17190900  1
  H  282  1  0.73738900  0.69933700  0.09625800  1
  H  283  1  0.78037100  0.66604900  0.06331600  1
  H  284  1  0.73916500  0.55304600  0.09340300  1
  H  285  1  0.63068900  0.55288300  0.17324000  1
  H  286  1  0.73999500  0.60387400  0.17275800  1
  H  287  1  0.78078000  0.49095200  0.20323100  1
  H  288  1  0.73709500  0.45758300  0.17072600  1
  H  289  1  0.62977700  0.60405200  0.09411900  1
  H  290  1  0.63304300  0.45774900  0.09567800  1
  H  291  1  0.58925800  0.49118600  0.06332400  1
  H  294  1  0.66636800  0.68916500  0.12076800  1
  H  295  1  0.70484700  0.68862200  0.14705300  1
  H  297  1  0.70409800  0.46807300  0.11995500  1
  H  298  1  0.66595900  0.46797000  0.14648200  1
  H  302  1  0.58691900  0.55490400  0.21317600  1
  H  303  1  0.78476500  0.55519800  0.05453300  1
  H  304  1  0.58259800  0.60214000  0.05614500  1
  H  306  1  0.78617400  0.60186200  0.21124200  1
  H  328  1  0.84976200  0.23750700  0.45682800  1
  H  329  1  0.81667700  0.27895900  0.42317000  1
  H  330  1  0.81565600  0.37978500  0.34767700  1
  H  331  1  0.84780700  0.42194600  0.31398000  1
  H  332  1  0.96199500  0.38363400  0.34376400  1
  H  333  1  0.96303200  0.27459600  0.42471000  1
  H  334  1  0.91305900  0.38362200  0.42499400  1
  H  335  1  0.91228600  0.27472300  0.34417800  1
  H  338  1  0.82684100  0.30986400  0.37204100  1
  H  339  1  0.82721000  0.34841300  0.39832500  1
  H  343  1  0.95971700  0.23231400  0.46624400  1
  H  344  1  0.95746800  0.42856100  0.30317700  1
  H  345  1  0.91567100  0.23036600  0.30341700  1
  H  347  1  0.91719200  0.42577000  0.46652400  1
  H  370  1  0.91148900  0.77652800  0.84308200  1
  H  371  1  0.91104700  0.88494400  0.92443200  1
  H  372  1  0.96036500  0.77592200  0.92498900  1
  H  373  1  0.84620700  0.73831000  0.95524400  1
  H  374  1  0.81408600  0.77982200  0.92110100  1
  H  375  1  0.96156800  0.88495600  0.84399600  1
  H  376  1  0.81515600  0.88122000  0.84601200  1
  H  377  1  0.84821600  0.92354100  0.81285500  1
  H  380  1  0.82574400  0.81105300  0.87023100  1
  H  381  1  0.82526800  0.84943200  0.89663900  1
  H  385  1  0.91465600  0.92734100  0.96596200  1
  H  386  1  0.91564400  0.73489500  0.80123800  1
  H  387  1  0.95816800  0.92997700  0.80349200  1
  H  389  1  0.95571400  0.73391900  0.96676300  1
  H  414  1  0.35033400  0.42302500  0.80877500  1
  H  415  1  0.31741300  0.38229100  0.84286800  1
  H  416  1  0.31631900  0.28200100  0.91833900  1
  H  417  1  0.34827600  0.23946100  0.95187900  1
  H  418  1  0.46262200  0.27890100  0.92311700  1
  H  419  1  0.46377300  0.38716400  0.84135700  1
  H  420  1  0.41301300  0.27900800  0.84113800  1
  H  421  1  0.52648600  0.23690300  0.81248100  1
  H  422  1  0.55932500  0.27801300  0.84634500  1
  H  423  1  0.41530400  0.39201600  0.92074000  1
  H  424  1  0.56137700  0.37948500  0.92020400  1
  H  425  1  0.53058000  0.42637000  0.95111800  1
  H  428  1  0.32744600  0.35224900  0.89418900  1
  H  429  1  0.32821300  0.31346400  0.86806900  1
  H  431  1  0.54744300  0.30927900  0.89697900  1
  H  432  1  0.55063700  0.34752800  0.87054100  1
  H  436  1  0.46007300  0.42834600  0.79909000  1
  H  437  1  0.45780400  0.23287300  0.96320200  1
  H  438  1  0.42391300  0.44917900  0.95376100  1
  H  440  1  0.41704000  0.23300600  0.80082600  1
  H  465  1  0.52446700  0.73847400  0.31015000  1
  H  466  1  0.55731600  0.78035300  0.34371700  1
  H  467  1  0.55769800  0.88022000  0.41999100  1
  H  468  1  0.52522500  0.92087400  0.45444000  1
  H  469  1  0.41140400  0.88386500  0.42328200  1
  H  470  1  0.41099200  0.77538900  0.34201900  1
  H  471  1  0.46036700  0.88434100  0.34152000  1
  H  472  1  0.34624300  0.92228600  0.31141100  1
  H  473  1  0.31408500  0.88084100  0.34558200  1
  H  474  1  0.46154900  0.77499200  0.42220100  1
  H  475  1  0.31515500  0.77956500  0.42082800  1
  H  476  1  0.34827000  0.73704400  0.45382600  1
  H  479  1  0.54699500  0.81119200  0.39475200  1
  H  480  1  0.54634900  0.84995900  0.36863500  1
  H  482  1  0.32589700  0.84964700  0.39649600  1
  H  483  1  0.32504900  0.81124700  0.37011400  1
  H  487  1  0.41457000  0.73283100  0.30060000  1
  H  488  1  0.41549500  0.92501000  0.46533300  1
  H  489  1  0.45830700  0.72999200  0.46260500  1
  H  491  1  0.45583400  0.92664100  0.29996900  1
  H  494  1  0.95151700  0.98493200  0.03393800  1
  H  503  1  0.42236700  0.48539800  0.73078700  1
  H  515  1  0.45168600  0.67529200  0.23256000  1
  H  527  1  0.29527600  0.64220400  0.49198700  1
  H  539  1  0.79337700  0.51458000  0.27281300  1
  H  550  1  0.95438000  0.48427000  0.53387400  1
  H  558  1  0.91964400  0.67588600  0.03389100  1
  H  567  1  0.41945800  0.98442000  0.23263900  1
  H  580  1  0.45352800  0.98086800  0.53393500  1
  H  585  1  0.95268600  0.67988000  0.73246700  1
  H  595  1  0.45780400  0.46956400  0.03662200  1
  C  1  1  0.15826300  0.10585200  0.15206000  1
  C  2  1  0.15862500  0.14884500  0.15199300  1
  C  3  1  0.10729200  0.15042400  0.18974500  1
  C  4  1  0.10613300  0.10772200  0.19075000  1
  C  5  1  0.13161900  0.08627700  0.17152900  1
  C  6  1  0.15877000  0.05687200  0.11310700  1
  C  7  1  0.15963700  0.01388500  0.11318200  1
  C  8  1  0.13212700  0.07609400  0.09345000  1
  C  9  1  0.10717900  0.05430100  0.07405900  1
  C  10  1  0.10886300  0.01162200  0.07508800  1
  C  13  1  0.08209200  0.08630200  0.21017800  1
  C  14  1  0.08360400  0.07528800  0.05412400  1
  C  17  1  0.03988500  0.02996700  0.02493700  1
  C  18  1  0.04943800  0.01514900  0.99744100  1
  C  23  1  0.05076400  0.14919100  0.26456000  1
  C  24  1  0.03754800  0.13089200  0.23914000  1
  C  27  1  0.13297900  0.17058600  0.17062800  1
  C  30  1  0.18609300  0.08150900  0.13268400  1
  C  31  1  0.18556900  0.17249400  0.13303100  1
  C  33  1  0.21280800  0.14945800  0.11390500  1
  C  34  1  0.21366300  0.10647400  0.11351000  1
  C  35  1  0.24060800  0.08752400  0.09393900  1
  C  36  1  0.26597500  0.10956900  0.07497100  1
  C  37  1  0.26430500  0.15223300  0.07628800  1
  C  38  1  0.21330200  0.01385800  0.15162000  1
  C  39  1  0.21365600  0.05684700  0.15207900  1
  C  40  1  0.26384800  0.01151400  0.18985800  1
  C  41  1  0.26499300  0.05418900  0.19129000  1
  C  42  1  0.23993600  0.07602700  0.17199400  1
  C  45  1  0.28818500  0.07511400  0.21148000  1
  C  47  1  0.29052300  0.08875900  0.05553100  1
  C  49  1  0.71515300  0.05442600  0.65179700  1
  C  50  1  0.71460700  0.01143500  0.65173100  1
  C  51  1  0.66065900  0.01103400  0.61347500  1
  C  52  1  0.65999800  0.05402200  0.61304400  1
  C  53  1  0.63344600  0.07304800  0.59323900  1
  C  54  1  0.60843400  0.05106600  0.57399700  1
  C  55  1  0.76590100  0.00960900  0.68950700  1
  C  56  1  0.76725300  0.05230200  0.69051600  1
  C  57  1  0.74185000  0.07387100  0.67130200  1
  C  58  1  0.71511000  0.10338200  0.61283600  1
  C  59  1  0.71451600  0.14637300  0.61294000  1
  C  60  1  0.66059200  0.14667000  0.65119400  1
  C  61  1  0.65995600  0.10368200  0.65160400  1
  C  62  1  0.60938300  0.14926000  0.68899100  1
  C  63  1  0.60792800  0.10659300  0.69035900  1
  C  64  1  0.63325200  0.08463100  0.67130200  1
  C  65  1  0.74168300  0.08401400  0.59320500  1
  C  66  1  0.76678900  0.10566700  0.57384400  1
  C  67  1  0.76537100  0.14835700  0.57489400  1
  C  72  1  0.68754300  0.07887700  0.63232200  1
  C  73  1  0.58371600  0.08577000  0.71000900  1
  C  74  1  0.79137400  0.07356700  0.70998100  1
  C  75  1  0.79022800  0.08452500  0.55391400  1
  C  79  1  0.58508000  0.07187300  0.55384800  1
  C  82  1  0.83411600  0.12967000  0.52480400  1
  C  84  1  0.82481000  0.14465600  0.49732800  1
  C  89  1  0.55263100  0.15040100  0.76346200  1
  C  90  1  0.53911600  0.13117200  0.73845600  1
  C  95  1  0.33107900  0.02960600  0.24107300  1
  C  97  1  0.32095800  0.01458700  0.26840300  1
  C  102  1  0.32146700  0.15316300  0.00200400  1
  C  103  1  0.33519100  0.13406000  0.02700100  1
  C  108  1  0.82287100  0.01056600  0.76422000  1
  C  109  1  0.83615000  0.02888600  0.73880900  1
  C  114  1  0.54150700  0.02649400  0.52449400  1
  C  116  1  0.55042800  0.01247400  0.49669300  1
  C  123  1  0.23826900  0.17178900  0.09548500  1
  C  125  1  0.63516500  0.16890700  0.66968800  1
  C  126  1  0.73983100  0.16831400  0.59420200  1
  C  129  1  0.68758600  0.16985600  0.63199900  1
  C  130  1  0.89582600  0.16769000  0.52436700  1
  C  133  1  0.47458300  0.16468000  0.74388000  1
  C  135  1  0.39999800  0.16680100  0.02090200  1
  C  137  1  0.97308300  0.16443800  0.24461500  1
  C  139  1  0.88717100  0.18293400  0.49705400  1
  C  141  1  0.48857600  0.18387900  0.76896800  1
  C  143  1  0.98680500  0.18272500  0.27011500  1
  C  147  1  0.38577900  0.18581200  0.99580700  1
  C  148  1  0.13449800  0.99181100  0.09440600  1
  C  152  1  0.16010200  0.64925900  0.65157600  1
  C  153  1  0.15926200  0.60627400  0.65201000  1
  C  154  1  0.13253900  0.58736500  0.67175700  1
  C  155  1  0.10749700  0.60945200  0.69092400  1
  C  156  1  0.10912800  0.65211300  0.68953900  1
  C  157  1  0.13484400  0.67162500  0.67011300  1
  C  158  1  0.15950400  0.51370400  0.61380200  1
  C  159  1  0.15916000  0.55669500  0.61339700  1
  C  160  1  0.13428500  0.49165200  0.59506400  1
  C  161  1  0.10923300  0.51148600  0.57538500  1
  C  162  1  0.10816300  0.55416800  0.57397800  1
  C  163  1  0.13300700  0.57594300  0.59343500  1
  C  170  1  0.08545800  0.57517100  0.55356000  1
  C  172  1  0.08378500  0.58875200  0.71092700  1
  C  174  1  0.00914900  0.40556700  0.44186700  1
  C  175  1  0.02835800  0.38066100  0.42191400  1
  C  176  1  0.02768000  0.27791900  0.34617700  1
  C  181  1  0.02879800  0.32933700  0.38399800  1
  C  184  1  0.02676900  0.77879200  0.84656600  1
  C  185  1  0.02636500  0.88104100  0.92264100  1
  C  190  1  0.02728700  0.82965000  0.88478200  1
  C  194  1  0.04231200  0.52977400  0.52418200  1
  C  196  1  0.05178000  0.51468300  0.49675800  1
  C  201  1  0.04093300  0.63433400  0.74072300  1
  C  203  1  0.05055300  0.64823700  0.76843100  1
  C  211  1  0.18664200  0.99054400  0.13227500  1
  C  212  1  0.18677000  0.58131000  0.63277400  1
  C  213  1  0.18615100  0.49033100  0.63312500  1
  C  214  1  0.18722500  0.67228000  0.63236000  1
  C  215  1  0.23860200  0.99174700  0.17026800  1
  C  220  1  0.60987400  0.00840200  0.57538500  1
  C  221  1  0.63539200  0.98877700  0.59488300  1
  C  222  1  0.74013100  0.98957400  0.67038200  1
  C  229  1  0.68763400  0.98790100  0.63272300  1
  C  232  1  0.21458200  0.60564300  0.61336500  1
  C  233  1  0.21416600  0.64863400  0.61339700  1
  C  234  1  0.23973500  0.67038300  0.59471100  1
  C  235  1  0.26539000  0.65023100  0.57557000  1
  C  236  1  0.26657700  0.60753100  0.57457500  1
  C  237  1  0.24118500  0.58607700  0.59385700  1
  C  238  1  0.21413600  0.55661900  0.65227900  1
  C  239  1  0.21323700  0.51363100  0.65218800  1
  C  240  1  0.24086700  0.57581000  0.67188400  1
  C  241  1  0.26588900  0.55398900  0.69120700  1
  C  242  1  0.26417300  0.51131000  0.69017400  1
  C  243  1  0.23843900  0.49152200  0.67090700  1
  C  252  1  0.29044100  0.58614900  0.55501700  1
  C  253  1  0.28954100  0.57496500  0.71109200  1
  C  256  1  0.65722200  0.55384000  0.11407200  1
  C  257  1  0.65792800  0.51084300  0.11424000  1
  C  258  1  0.71207100  0.51073700  0.15233900  1
  C  259  1  0.71270100  0.55372800  0.15263100  1
  C  260  1  0.73955000  0.57286800  0.17218900  1
  C  261  1  0.76496500  0.55100400  0.19124000  1
  C  262  1  0.76347400  0.50833100  0.19001900  1
  C  263  1  0.73758000  0.48859200  0.17083300  1
  C  264  1  0.63247700  0.48875500  0.09567800  1
  C  265  1  0.60651900  0.50854900  0.07657000  1
  C  266  1  0.60482200  0.55122500  0.07553300  1
  C  267  1  0.63027400  0.57304300  0.09460300  1
  C  268  1  0.65762200  0.60310100  0.15295000  1
  C  269  1  0.65851000  0.64609200  0.15289800  1
  C  270  1  0.71214700  0.64615900  0.11446700  1
  C  271  1  0.71246500  0.60316800  0.11395400  1
  C  272  1  0.73763100  0.66832800  0.09597600  1
  C  273  1  0.76314100  0.64861600  0.07653300  1
  C  274  1  0.76428600  0.60594600  0.07504700  1
  C  275  1  0.73895000  0.58404900  0.09414000  1
  C  276  1  0.63116200  0.58389500  0.17273900  1
  C  277  1  0.60648300  0.60570400  0.19229600  1
  C  278  1  0.60815800  0.64838000  0.19125500  1
  C  279  1  0.63356500  0.66818300  0.17179300  1
  C  292  1  0.68497400  0.57845800  0.13338200  1
  C  293  1  0.68547400  0.66945600  0.13380200  1
  C  296  1  0.68501300  0.48746100  0.13325200  1
  C  299  1  0.78795600  0.58510700  0.05508800  1
  C  300  1  0.58034300  0.57213700  0.05609200  1
  C  301  1  0.58329800  0.58475500  0.21247500  1
  C  305  1  0.78929800  0.57194300  0.21074700  1
  C  307  1  0.96225900  0.30168900  0.36491100  1
  C  308  1  0.00528600  0.30258700  0.36500700  1
  C  309  1  0.00564100  0.35604300  0.40322700  1
  C  310  1  0.96262000  0.35681000  0.40374900  1
  C  311  1  0.94403500  0.38315200  0.42394900  1
  C  312  1  0.96654700  0.40739800  0.44343100  1
  C  313  1  0.00811700  0.25282400  0.32653000  1
  C  314  1  0.96547700  0.25103300  0.32530600  1
  C  315  1  0.94328000  0.27531000  0.34491100  1
  C  316  1  0.91305300  0.30155800  0.40403600  1
  C  317  1  0.87003200  0.30240400  0.40400200  1
  C  318  1  0.86953800  0.35585500  0.36580100  1
  C  319  1  0.91255900  0.35670400  0.36516800  1
  C  320  1  0.84666500  0.38059500  0.34730900  1
  C  321  1  0.86572300  0.40571600  0.32744900  1
  C  322  1  0.90832300  0.40740700  0.32562200  1
  C  323  1  0.93102900  0.38307600  0.34491900  1
  C  324  1  0.93203500  0.27515500  0.42402400  1
  C  325  1  0.90990700  0.25096900  0.44377100  1
  C  326  1  0.86728600  0.25302300  0.44273600  1
  C  327  1  0.84768300  0.27790400  0.42297200  1
  C  336  1  0.93762300  0.32918500  0.38447100  1
  C  337  1  0.84645600  0.32913100  0.38505400  1
  C  340  1  0.92754100  0.43062500  0.30472600  1
  C  341  1  0.94560100  0.22793500  0.30465100  1
  C  342  1  0.92996800  0.22842700  0.46468700  1
  C  346  1  0.94687100  0.42981900  0.46457800  1
  C  348  1  0.91157100  0.85794100  0.86467800  1
  C  349  1  0.86853800  0.85714700  0.86476500  1
  C  350  1  0.86798300  0.80345900  0.90280200  1
  C  351  1  0.91100700  0.80264700  0.90343500  1
  C  352  1  0.92940400  0.77638900  0.92379000  1
  C  353  1  0.90669800  0.75227100  0.94325500  1
  C  354  1  0.86411300  0.75399500  0.94145100  1
  C  355  1  0.84509200  0.77882500  0.92137300  1
  C  356  1  0.84616800  0.88203800  0.84606700  1
  C  357  1  0.86576200  0.90723800  0.82651300  1
  C  358  1  0.90840100  0.90893200  0.82525700  1
  C  359  1  0.93057700  0.88443200  0.84475400  1
  C  360  1  0.96086200  0.85768900  0.90374600  1
  C  361  1  0.00388000  0.85656200  0.90372600  1
  C  362  1  0.00407100  0.80325900  0.86536400  1
  C  363  1  0.96105000  0.80267400  0.86475400  1
  C  364  1  0.00756500  0.75443800  0.82628400  1
  C  365  1  0.96496800  0.75291000  0.82452200  1
  C  366  1  0.94245900  0.77678900  0.84424400  1
  C  367  1  0.94203800  0.88422600  0.92372900  1
  C  368  1  0.96430400  0.90838900  0.94341200  1
  C  369  1  0.00692000  0.90618000  0.94233300  1
  C  378  1  0.93612900  0.83021600  0.88416600  1
  C  379  1  0.84493500  0.83025900  0.88358600  1
  C  382  1  0.94538300  0.73110700  0.80299700  1
  C  383  1  0.92822000  0.93222600  0.80467900  1
  C  384  1  0.94441400  0.93109500  0.96432200  1
  C  388  1  0.92603500  0.73005300  0.96466000  1
  C  390  1  0.46391900  0.36043100  0.90143600  1
  C  391  1  0.50688900  0.35739100  0.90177400  1
  C  392  1  0.50588300  0.30386100  0.86385100  1
  C  393  1  0.46287300  0.30472200  0.86283400  1
  C  394  1  0.44395500  0.27871500  0.84251900  1
  C  395  1  0.46624300  0.25345400  0.82353200  1
  C  396  1  0.50883100  0.25383500  0.82567000  1
  C  397  1  0.52831300  0.27833200  0.84564600  1
  C  398  1  0.53042200  0.38161300  0.92014700  1
  C  399  1  0.51210700  0.40923400  0.93855400  1
  C  400  1  0.46962200  0.41347000  0.93942300  1
  C  401  1  0.44616100  0.38906700  0.92054000  1
  C  402  1  0.41390400  0.36058800  0.86239800  1
  C  403  1  0.37086100  0.35958800  0.86236200  1
  C  404  1  0.37031000  0.30657300  0.90077500  1
  C  405  1  0.41333400  0.30603400  0.90164700  1
  C  406  1  0.34732800  0.28149900  0.91897600  1
  C  407  1  0.36627000  0.25617800  0.93874700  1
  C  408  1  0.40885200  0.25473800  0.94082700  1
  C  409  1  0.43167000  0.27952300  0.92187800  1
  C  410  1  0.43278200  0.38660700  0.84210700  1
  C  411  1  0.41053400  0.41023400  0.82206900  1
  C  412  1  0.36792200  0.40801900  0.82309500  1
  C  413  1  0.34841300  0.38355800  0.84313100  1
  C  426  1  0.43851000  0.33310400  0.88209000  1
  C  427  1  0.34725500  0.33298200  0.88134500  1
  C  430  1  0.52964600  0.32935200  0.88337400  1
  C  433  1  0.42787000  0.23107600  0.96156000  1
  C  434  1  0.45304900  0.44335200  0.95706900  1
  C  435  1  0.43034900  0.43228200  0.80078500  1
  C  439  1  0.44688200  0.23032800  0.80265500  1
  C  441  1  0.41152500  0.80233800  0.40178000  1
  C  442  1  0.36849800  0.80333500  0.40184400  1
  C  443  1  0.36795800  0.85699500  0.36378100  1
  C  444  1  0.41097900  0.85767100  0.36306500  1
  C  445  1  0.42940400  0.88392600  0.34272900  1
  C  446  1  0.40672500  0.90812900  0.32330500  1
  C  447  1  0.36413700  0.90647400  0.32513400  1
  C  448  1  0.34509400  0.88167700  0.34522300  1
  C  449  1  0.34615800  0.77854700  0.42062600  1
  C  450  1  0.36578500  0.75318300  0.44006400  1
  C  451  1  0.40841900  0.75118000  0.44109800  1
  C  452  1  0.43055200  0.77567700  0.42157800  1
  C  453  1  0.46081300  0.80261000  0.36271400  1
  C  454  1  0.50383400  0.80366800  0.36278900  1
  C  455  1  0.50401600  0.85685900  0.40123000  1
  C  456  1  0.46099800  0.85756500  0.40174400  1
  C  457  1  0.52669200  0.88119200  0.42012500  1
  C  458  1  0.50744900  0.90556500  0.44038200  1
  C  459  1  0.46484600  0.90732300  0.44198200  1
  C  460  1  0.44237900  0.88351000  0.42219900  1
  C  461  1  0.44198200  0.77609200  0.34272700  1
  C  462  1  0.46424900  0.75188600  0.32306700  1
  C  463  1  0.50686100  0.75409800  0.32414800  1
  C  464  1  0.52631600  0.77920400  0.34386100  1
  C  477  1  0.43608600  0.83006500  0.38230700  1
  C  478  1  0.52724300  0.83044700  0.38182900  1
  C  481  1  0.34490100  0.83033200  0.38309100  1
  C  484  1  0.44517900  0.92910100  0.46348200  1
  C  485  1  0.42835500  0.72767400  0.46150200  1
  C  486  1  0.44433700  0.72912200  0.30219300  1
  C  490  1  0.42613100  0.93043500  0.30197400  1
  C  492  1  0.97825600  0.99178600  0.02409800  1
  C  493  1  0.98717700  0.97674400  0.99677600  1
  C  497  1  0.33369700  0.52973100  0.74005400  1
  C  499  1  0.39566100  0.49207700  0.74072900  1
  C  500  1  0.38717900  0.47719800  0.76816300  1
  C  502  1  0.32449700  0.51498000  0.76762100  1
  C  509  1  0.53991900  0.63015600  0.24184800  1
  C  511  1  0.47839200  0.66848000  0.24245800  1
  C  512  1  0.48719500  0.68358300  0.26978800  1
  C  514  1  0.54934900  0.64498000  0.26935200  1
  C  521  1  0.38693400  0.68232200  0.49574500  1
  C  523  1  0.32272800  0.64906500  0.50078900  1
  C  524  1  0.33543700  0.63067100  0.52630400  1
  C  526  1  0.40017300  0.66386800  0.52131400  1
  C  533  1  0.88555300  0.47552500  0.27027900  1
  C  535  1  0.82112500  0.50804900  0.26435600  1
  C  536  1  0.83443800  0.52691300  0.23914800  1
  C  538  1  0.89935900  0.49424600  0.24496300  1
  C  548  1  0.98101400  0.49113100  0.52389500  1
  C  549  1  0.98982600  0.47579500  0.49663300  1
  C  552  1  0.83115600  0.63073100  0.02574700  1
  C  554  1  0.89268000  0.66906200  0.02434500  1
  C  555  1  0.88305000  0.68434000  0.99720900  1
  C  557  1  0.82085600  0.64584900  0.99846500  1
  C  564  1  0.39253700  0.99120800  0.24225400  1
  C  565  1  0.38307000  0.97595000  0.26942900  1
  C  571  1  0.88695300  0.97733800  0.77005000  1
  C  573  1  0.90073200  0.99557400  0.74455100  1
  C  577  1  0.48000400  0.98808900  0.52387800  1
  C  578  1  0.48828900  0.97386800  0.49624000  1
  C  583  1  0.97946200  0.67273400  0.74215500  1
  C  584  1  0.98845300  0.68689500  0.76970100  1
  C  589  1  0.53844600  0.52671300  0.02543600  1
  C  591  1  0.48174000  0.48140100  0.02564200  1
  C  592  1  0.48808300  0.47164000  0.99681400  1
  C  594  1  0.54610700  0.51638600  0.99670200  1
  N  19  1  0.08457200  0.02910000  0.98318500  1
  N  22  1  0.05806400  0.06256400  0.03544200  1
  N  26  1  0.05580900  0.09853900  0.22849800  1
  N  29  1  0.02501100  0.17390000  0.27906600  1
  N  81  1  0.00410500  0.01835600  0.03665500  1
  N  83  1  0.86982600  0.14108400  0.53672900  1
  N  85  1  0.78973500  0.13090700  0.48290500  1
  N  88  1  0.81583800  0.09708400  0.53522700  1
  N  91  1  0.50021600  0.13835000  0.73048500  1
  N  94  1  0.55739500  0.09859200  0.72811800  1
  N  96  1  0.36702200  0.01800000  0.22959600  1
  N  98  1  0.28565500  0.02862600  0.28240800  1
  N  101  1  0.31328500  0.06232600  0.23043100  1
  N  104  1  0.37429800  0.14089100  0.03462500  1
  N  107  1  0.31694900  0.10160000  0.03751500  1
  N  110  1  0.87497700  0.02140700  0.73081200  1
  N  113  1  0.81773200  0.06118500  0.72820500  1
  N  115  1  0.50605500  0.01442400  0.53648300  1
  N  117  1  0.58518900  0.02687500  0.48220800  1
  N  120  1  0.55977100  0.05899000  0.53507200  1
  N  121  1  0.99881100  0.13847100  0.23097700  1
  N  131  1  0.85218900  0.17010800  0.48467800  1
  N  132  1  0.52699500  0.17553100  0.77772600  1
  N  134  1  0.43421000  0.17039500  0.73446400  1
  N  136  1  0.44058200  0.17216900  0.02997800  1
  N  138  1  0.93283500  0.17051100  0.23502500  1
  N  142  1  0.34714300  0.17782700  0.98738300  1
  N  193  1  0.02226800  0.98965000  0.98460200  1
  N  195  1  0.02468100  0.48883700  0.48420000  1
  N  197  1  0.08672900  0.52868300  0.48230300  1
  N  200  1  0.06039900  0.56249800  0.53454900  1
  N  202  1  0.02346700  0.67340100  0.78166900  1
  N  204  1  0.08556400  0.63359200  0.78248900  1
  N  207  1  0.05867300  0.60177700  0.72978800  1
  N  495  1  0.95901100  0.95548900  0.98310700  1
  N  496  1  0.91563200  0.20402500  0.48356500  1
  N  498  1  0.36947600  0.51835800  0.72821400  1
  N  501  1  0.35205800  0.48987300  0.78042800  1
  N  504  1  0.28930200  0.52861000  0.78196800  1
  N  507  1  0.31526700  0.56223700  0.72964200  1
  N  508  1  0.41571900  0.45630100  0.78176000  1
  N  510  1  0.50423400  0.64180700  0.23000000  1
  N  513  1  0.52214600  0.67054000  0.28209300  1
  N  516  1  0.58436100  0.63094600  0.28371400  1
  N  519  1  0.55803100  0.59751900  0.23132800  1
  N  520  1  0.45887600  0.70472500  0.28338700  1
  N  522  1  0.34882500  0.67367400  0.48650300  1
  N  525  1  0.37409800  0.63801600  0.53474300  1
  N  528  1  0.44032500  0.66964600  0.53118800  1
  N  531  1  0.41289800  0.70378300  0.48022800  1
  N  532  1  0.31682500  0.59838900  0.53676300  1
  N  534  1  0.84704700  0.48360400  0.27894000  1
  N  537  1  0.87343200  0.51999200  0.23129600  1
  N  540  1  0.93984100  0.48888300  0.23565600  1
  N  543  1  0.91105600  0.45403400  0.28613600  1
  N  544  1  0.81583200  0.55924600  0.22873800  1
  N  546  1  0.46329200  0.20623800  0.78444600  1
  N  547  1  0.00674700  0.51807000  0.53617000  1
  N  551  1  0.96160800  0.45431000  0.48323600  1
  N  553  1  0.86720700  0.64230400  0.03707600  1
  N  556  1  0.84764400  0.67155600  0.98542300  1
  N  559  1  0.78541000  0.63193400  0.98457500  1
  N  562  1  0.81333500  0.59799800  0.03635200  1
  N  563  1  0.91075000  0.70589800  0.98332100  1
  N  566  1  0.34781900  0.98888900  0.28136400  1
  N  568  1  0.41096400  0.95457100  0.28325300  1
  N  570  1  0.41096100  0.20756800  0.97989200  1
  N  572  1  0.84864400  0.98602300  0.77885200  1
  N  574  1  0.94105900  0.98962000  0.73509100  1
  N  576  1  0.91244700  0.95583800  0.78591600  1
  N  579  1  0.52302500  0.98725900  0.48383500  1
  N  581  1  0.45986400  0.95295000  0.48257900  1
  N  582  1  0.00517100  0.64640700  0.72920000  1
  N  586  1  0.96027400  0.70758300  0.78378300  1
  N  588  1  0.96124700  0.20426600  0.28587500  1
  N  590  1  0.50598300  0.50934600  0.03842400  1
  N  593  1  0.52027400  0.48965800  0.98385900  1
  N  596  1  0.57899800  0.53405500  0.98182600  1
  N  599  1  0.55547100  0.55922200  0.03702600  1
  N  600  1  0.46359200  0.44535200  0.98372300  1
  O  20  1  0.08572100  0.01961000  0.95732600  1
  O  21  1  0.11525300  0.01329000  0.99444700  1
  O  86  1  0.78872800  0.14073400  0.45710200  1
  O  87  1  0.75901300  0.14663200  0.49417100  1
  O  93  1  0.42331900  0.14565700  0.71563200  1
  O  99  1  0.28397600  0.01889000  0.30820800  1
  O  100  1  0.25507300  0.01313700  0.27079700  1
  O  106  1  0.45138600  0.14774800  0.04903900  1
  O  112  1  0.95177700  0.01372500  0.71580900  1
  O  118  1  0.58580100  0.01796100  0.45623500  1
  O  119  1  0.61616800  0.01091100  0.49295300  1
  O  122  1  0.92213200  0.14638100  0.21575300  1
  O  198  1  0.08786000  0.51870100  0.45653300  1
  O  199  1  0.11760500  0.51336100  0.49364000  1
  O  205  1  0.08675000  0.64228600  0.80848700  1
  O  206  1  0.11636700  0.64952800  0.77148200  1
  O  505  1  0.28827000  0.51893100  0.80779600  1
  O  506  1  0.25868000  0.51267400  0.77070800  1
  O  517  1  0.58539200  0.64049200  0.30956700  1
  O  518  1  0.61514600  0.64666200  0.27252400  1
  O  529  1  0.45063700  0.64533400  0.55045100  1
  O  530  1  0.44326100  0.70452800  0.54165800  1
  O  541  1  0.95039500  0.51324600  0.21648800  1
  O  542  1  0.94345900  0.45401300  0.22526700  1
  O  545  1  0.43116700  0.20502400  0.72359900  1
  O  560  1  0.78358300  0.64167400  0.95878100  1
  O  561  1  0.75495900  0.64751300  0.99629400  1
  O  569  1  0.44427900  0.20699900  0.04042200  1
  O  575  1  0.94411400  0.95463800  0.72480000  1
  O  587  1  0.92996500  0.20547100  0.22467200  1
  O  597  1  0.57903400  0.52628000  0.95566700  1
  O  598  1  0.61153700  0.51971000  0.99139900  1
