# generated using pymatgen
data_LaH2C5O6
_symmetry_space_group_name_H-M   'P 1'
_cell_length_a   8.83858000
_cell_length_b   8.85646000
_cell_length_c   16.04034000
_cell_angle_alpha   100.16140000
_cell_angle_beta   99.59411000
_cell_angle_gamma   112.13783000
_symmetry_Int_Tables_number   1
_chemical_formula_structural   LaH2C5O6
_chemical_formula_sum   'La4 H8 C20 O24'
_cell_volume   1106.74492941
_cell_formula_units_Z   4
loop_
 _symmetry_equiv_pos_site_id
 _symmetry_equiv_pos_as_xyz
  1  'x, y, z'
loop_
 _atom_site_type_symbol
 _atom_site_label
 _atom_site_symmetry_multiplicity
 _atom_site_fract_x
 _atom_site_fract_y
 _atom_site_fract_z
 _atom_site_occupancy
  La  La0  1  0.73050000  0.97898000  0.45660000  1
  La  La1  1  0.52138000  0.77186000  0.04277000  1
  La  La2  1  0.26951000  0.02103000  0.54340000  1
  La  La3  1  0.47863000  0.22814000  0.95723000  1
  H  H4  1  0.90104000  0.44228000  0.56539000  1
  H  H5  1  0.66447000  0.62440000  0.56382000  1
  H  H6  1  0.06015000  0.59980000  0.93526000  1
  H  H7  1  0.87574000  0.83420000  0.93503000  1
  H  H8  1  0.09897000  0.55773000  0.43461000  1
  H  H9  1  0.33554000  0.37560000  0.43618000  1
  H  H10  1  0.93986000  0.40020000  0.06474000  1
  H  H11  1  0.12427000  0.16580000  0.06497000  1
  C  C12  1  0.63226000  0.30694000  0.56077000  1
  C  C13  1  0.78513000  0.45846000  0.56602000  1
  C  C14  1  0.93095000  0.75345000  0.56145000  1
  C  C15  1  0.78112000  0.60840000  0.56582000  1
  C  C16  1  0.19301000  0.86814000  0.93919000  1
  C  C17  1  0.04243000  0.71457000  0.93409000  1
  C  C18  1  0.74586000  0.56970000  0.93878000  1
  C  C19  1  0.89188000  0.71805000  0.93395000  1
  C  C20  1  0.36775000  0.69306000  0.43923000  1
  C  C21  1  0.21488000  0.54154000  0.43398000  1
  C  C22  1  0.06906000  0.24655000  0.43855000  1
  C  C23  1  0.21889000  0.39160000  0.43418000  1
  C  C24  1  0.80699000  0.13186000  0.06082000  1
  C  C25  1  0.95758000  0.28543000  0.06591000  1
  C  C26  1  0.25415000  0.43030000  0.06122000  1
  C  C27  1  0.10813000  0.28195000  0.06606000  1
  C  C28  1  0.57230000  0.92801000  0.25005000  1
  C  C29  1  0.67796000  0.82124000  0.24936000  1
  C  C30  1  0.42771000  0.07199000  0.74995000  1
  C  C31  1  0.32205000  0.17876000  0.75064000  1
  O  O32  1  0.56058000  0.99374000  0.32426000  1
  O  O33  1  0.64484000  0.16401000  0.54875000  1
  O  O34  1  0.49442000  0.31637000  0.56633000  1
  O  O35  1  0.76319000  0.82829000  0.32300000  1
  O  O36  1  0.90888000  0.88348000  0.54574000  1
  O  O37  1  0.07479000  0.74991000  0.57084000  1
  O  O38  1  0.50660000  0.94005000  0.17638000  1
  O  O39  1  0.33712000  0.85778000  0.95177000  1
  O  O40  1  0.18213000  0.00483000  0.93329000  1
  O  O41  1  0.66998000  0.73583000  0.17519000  1
  O  O42  1  0.61408000  0.59261000  0.95127000  1
  O  O43  1  0.75052000  0.42685000  0.93278000  1
  O  O44  1  0.43943000  0.00626000  0.67575000  1
  O  O45  1  0.35517000  0.83599000  0.45125000  1
  O  O46  1  0.50559000  0.68363000  0.43367000  1
  O  O47  1  0.23682000  0.17171000  0.67700000  1
  O  O48  1  0.09113000  0.11652000  0.45426000  1
  O  O49  1  0.92522000  0.25010000  0.42916000  1
  O  O50  1  0.49341000  0.05995000  0.82363000  1
  O  O51  1  0.66289000  0.14222000  0.04823000  1
  O  O52  1  0.81788000  0.99517000  0.06671000  1
  O  O53  1  0.33003000  0.26417000  0.82481000  1
  O  O54  1  0.38593000  0.40739000  0.04873000  1
  O  O55  1  0.24949000  0.57315000  0.06722000  1
