# generated using pymatgen
data_H14C14N3
_symmetry_space_group_name_H-M   'P 1'
_cell_length_a   9.99493333
_cell_length_b   29.55155000
_cell_length_c   29.55160000
_cell_angle_alpha   120.00016791
_cell_angle_beta   90.00000000
_cell_angle_gamma   90.00000000
_symmetry_Int_Tables_number   1
_chemical_formula_structural   H14C14N3
_chemical_formula_sum   'H84 C84 N18'
_cell_volume   7559.11692577
_cell_formula_units_Z   6
loop_
 _symmetry_equiv_pos_site_id
 _symmetry_equiv_pos_as_xyz
  1  'x, y, z'
loop_
 _atom_site_type_symbol
 _atom_site_label
 _atom_site_symmetry_multiplicity
 _atom_site_fract_x
 _atom_site_fract_y
 _atom_site_fract_z
 _atom_site_occupancy
  C  1  1  0.07391800  0.02630500  0.52065800  1
  C  2  1  0.00560000  0.03731700  0.56708300  1
  C  3  1  0.98018200  0.08870900  0.60698300  1
  C  4  1  0.01582400  0.13025400  0.59908800  1
  C  5  1  0.08072700  0.12086600  0.55271600  1
  C  6  1  0.11619600  0.06895300  0.51411600  1
  C  9  1  0.07397500  0.97287300  0.47901500  1
  C  10  1  0.11611000  0.93020100  0.48553700  1
  C  11  1  0.08053300  0.87830200  0.44694600  1
  C  12  1  0.01528400  0.86895600  0.40065200  1
  C  13  1  0.97982100  0.91051200  0.39274800  1
  C  14  1  0.00547400  0.96189200  0.43262900  1
  C  31  1  0.07363300  0.49375100  0.97315800  1
  C  32  1  0.00528900  0.52918900  0.96219600  1
  C  33  1  0.97987700  0.51771700  0.91081000  1
  C  34  1  0.01547800  0.46827400  0.86925600  1
  C  35  1  0.08064700  0.43131500  0.87860700  1
  C  36  1  0.11608000  0.44459500  0.93051600  1
  C  39  1  0.07378500  0.50552600  0.02660200  1
  C  40  1  0.11600400  0.55471300  0.06924800  1
  C  41  1  0.08053800  0.56798900  0.12114500  1
  C  42  1  0.01540900  0.53102600  0.13050400  1
  C  43  1  0.97993200  0.48156700  0.08894900  1
  C  44  1  0.00536900  0.47009400  0.03756200  1
  C  61  1  0.07400800  0.47871900  0.50571200  1
  C  62  1  0.00545400  0.43234300  0.47031800  1
  C  63  1  0.97992800  0.39244100  0.48180300  1
  C  64  1  0.01552400  0.40033400  0.53124600  1
  C  65  1  0.08069200  0.44665000  0.56819400  1
  C  66  1  0.11619600  0.48526000  0.55490400  1
  C  69  1  0.07369300  0.52038100  0.49393400  1
  C  70  1  0.11604700  0.51387100  0.44476700  1
  C  71  1  0.08057800  0.55250400  0.43150200  1
  C  72  1  0.01556400  0.59884400  0.46848800  1
  C  73  1  0.98009100  0.60673700  0.51794400  1
  C  74  1  0.00549500  0.56681200  0.52940100  1
  C  91  1  0.09754500  0.79044400  0.25633900  1
  C  92  1  0.09727100  0.73539400  0.22816800  1
  C  93  1  0.97550600  0.70720300  0.21345400  1
  C  94  1  0.85444400  0.73581700  0.22819300  1
  C  95  1  0.85471400  0.79070700  0.25559400  1
  C  96  1  0.97623400  0.81889400  0.27020300  1
  C  101  1  0.96713000  0.64923200  0.18159600  1
  C  104  1  0.97426400  0.87708600  0.29717900  1
  C  107  1  0.09777100  0.46526700  0.20905700  1
  C  108  1  0.09742500  0.49213700  0.26410700  1
  C  109  1  0.97562500  0.50555600  0.29227300  1
  C  110  1  0.85459900  0.49163000  0.26363500  1
  C  111  1  0.85494500  0.46415000  0.20874500  1
  C  112  1  0.97650000  0.45063200  0.18058200  1
  C  117  1  0.96718600  0.53166100  0.35024300  1
  C  120  1  0.97461500  0.41942600  0.12238700  1
  C  123  1  0.09794700  0.74314000  0.53422500  1
  C  124  1  0.09753200  0.77131800  0.50735600  1
  C  125  1  0.97569900  0.78608000  0.49397700  1
  C  126  1  0.85470900  0.77138500  0.50794200  1
  C  127  1  0.85512400  0.74397400  0.53541900  1
  C  128  1  0.97671100  0.72931100  0.54889700  1
  C  133  1  0.96718600  0.81795000  0.46788000  1
  C  136  1  0.97490000  0.70231600  0.58009500  1
  C  139  1  0.09811500  0.20887900  0.74339600  1
  C  140  1  0.09770700  0.26392800  0.77157800  1
  C  141  1  0.97587500  0.29207000  0.78634500  1
  C  142  1  0.85488400  0.26341300  0.77165300  1
  C  143  1  0.85528900  0.20852300  0.74424000  1
  C  144  1  0.97687600  0.18038000  0.72957000  1
  C  149  1  0.96736600  0.35003700  0.81821400  1
  C  152  1  0.97505600  0.12218600  0.70257600  1
  C  155  1  0.09799500  0.53390400  0.79065300  1
  C  156  1  0.09761100  0.50703200  0.73560400  1
  C  157  1  0.97579400  0.49369200  0.70745200  1
  C  158  1  0.85478900  0.50768600  0.73610200  1
  C  159  1  0.85517500  0.53516800  0.79099200  1
  C  160  1  0.97674500  0.54861700  0.81914200  1
  C  165  1  0.96731600  0.46760200  0.64948400  1
  C  168  1  0.97491000  0.57983000  0.87733500  1
  C  171  1  0.09743600  0.25597000  0.46534700  1
  C  172  1  0.09723600  0.22779500  0.49222200  1
  C  173  1  0.97550600  0.21311800  0.50576100  1
  C  174  1  0.85440900  0.22788400  0.49193600  1
  C  175  1  0.85460800  0.25529200  0.46445400  1
  C  176  1  0.97608900  0.26987900  0.45082900  1
  C  181  1  0.96721100  0.18128500  0.53190300  1
  C  184  1  0.97404500  0.29688100  0.41963800  1
  H  7  1  0.96882600  0.00740200  0.57154500  1
  H  8  1  0.98846200  0.16747400  0.62617600  1
  H  15  1  0.98799100  0.83174100  0.37353400  1
  H  16  1  0.96858200  0.99182000  0.42821400  1
  H  19  1  0.22300900  0.02630300  0.44675500  1
  H  20  1  0.22150900  0.08951600  0.46766700  1
  H  21  1  0.22065300  0.90965400  0.53223200  1
  H  22  1  0.22241400  0.97284300  0.55310400  1
  H  24  1  0.81439400  0.88751800  0.34788000  1
  H  26  1  0.14694100  0.80624300  0.42737600  1
  H  28  1  0.14733100  0.19286100  0.57215400  1
  H  30  1  0.81496900  0.11176200  0.65196100  1
  H  37  1  0.96847100  0.56354700  0.99212700  1
  H  38  1  0.98836600  0.45818900  0.83202600  1
  H  45  1  0.98823100  0.54110800  0.16772700  1
  H  46  1  0.96857600  0.43573100  0.00763000  1
  H  49  1  0.22288900  0.41986100  0.97314900  1
  H  50  1  0.22151900  0.37760100  0.90992600  1
  H  51  1  0.22051400  0.62195700  0.08978300  1
  H  52  1  0.22217400  0.57965300  0.02659000  1
  H  54  1  0.81461800  0.45964600  0.11195600  1
  H  56  1  0.14712700  0.62048300  0.19317200  1
  H  58  1  0.14719700  0.37883600  0.80657200  1
  H  60  1  0.81472700  0.53968400  0.88776600  1
  H  67  1  0.96844600  0.42794200  0.43599300  1
  H  68  1  0.98814700  0.37324000  0.54136500  1
  H  75  1  0.98830100  0.62596600  0.45839100  1
  H  76  1  0.96874600  0.57124100  0.56376800  1
  H  79  1  0.22272900  0.55271000  0.57970000  1
  H  80  1  0.22111300  0.53186500  0.62204500  1
  H  81  1  0.22137800  0.46744400  0.37773200  1
  H  82  1  0.22282400  0.44650500  0.42001100  1
  H  84  1  0.81482900  0.65169100  0.53991000  1
  H  86  1  0.14712100  0.57203200  0.37900100  1
  H  88  1  0.14711600  0.42712500  0.62071300  1
  H  90  1  0.81437800  0.34764200  0.46002600  1
  H  97  1  0.76440800  0.71676300  0.21765300  1
  H  98  1  0.18700200  0.71626900  0.21794800  1
  H  99  1  0.18731600  0.80964300  0.26579700  1
  H  100  1  0.76505900  0.80994100  0.26397700  1
  H  102  1  0.90565900  0.64046300  0.14744900  1
  H  103  1  0.91326900  0.63521700  0.20447100  1
  H  105  1  0.92094300  0.88826000  0.27197000  1
  H  106  1  0.07551000  0.89288900  0.30168500  1
  H  113  1  0.76454400  0.50009900  0.28267000  1
  H  114  1  0.18713200  0.50107900  0.28324700  1
  H  115  1  0.18757100  0.45556900  0.18987600  1
  H  116  1  0.76531900  0.45326200  0.18949100  1
  H  118  1  0.90578400  0.50626000  0.35900000  1
  H  119  1  0.91324300  0.56853400  0.36425700  1
  H  121  1  0.92141900  0.38301600  0.11119600  1
  H  122  1  0.07589400  0.40818800  0.10660500  1
  H  129  1  0.76462900  0.78196300  0.49950300  1
  H  130  1  0.18721700  0.78151200  0.49838800  1
  H  131  1  0.18777100  0.73364500  0.54389600  1
  H  132  1  0.76552300  0.73562100  0.54633700  1
  H  134  1  0.90592900  0.85213800  0.49332700  1
  H  135  1  0.91305900  0.79511800  0.43104400  1
  H  137  1  0.92178300  0.72753800  0.61652300  1
  H  138  1  0.07620600  0.69775400  0.59129900  1
  H  145  1  0.76480300  0.28243200  0.78223600  1
  H  146  1  0.18739200  0.28308600  0.78176400  1
  H  147  1  0.18793600  0.18971100  0.73389500  1
  H  148  1  0.76568900  0.18925600  0.73589400  1
  H  150  1  0.90602500  0.35877600  0.85238300  1
  H  151  1  0.91332500  0.36404300  0.79537000  1
  H  153  1  0.92195300  0.11098400  0.72780700  1
  H  154  1  0.07636000  0.10641800  0.69800700  1
  H  161  1  0.76472400  0.49927200  0.71707800  1
  H  162  1  0.18730700  0.49803300  0.71644900  1
  H  163  1  0.18781100  0.54354600  0.80982300  1
  H  164  1  0.76556900  0.54611300  0.81025400  1
  H  166  1  0.90606500  0.49304900  0.64074000  1
  H  167  1  0.91319800  0.43076500  0.63547400  1
  H  169  1  0.92186800  0.61627100  0.88852800  1
  H  170  1  0.07621500  0.59101100  0.89310800  1
  H  177  1  0.76439800  0.21737000  0.50049400  1
  H  178  1  0.18698600  0.21755500  0.50108700  1
  H  179  1  0.18718600  0.26540900  0.45556900  1
  H  180  1  0.76492300  0.26370600  0.45365000  1
  H  182  1  0.90568000  0.14714300  0.50656800  1
  H  183  1  0.91345400  0.20418700  0.56881400  1
  H  185  1  0.92057700  0.27170900  0.38328300  1
  H  186  1  0.07526000  0.30135000  0.40828600  1
  N  17  1  0.18807100  0.06065800  0.47138900  1
  N  18  1  0.18817200  0.93844700  0.52820300  1
  N  23  1  0.90629000  0.90345000  0.34886700  1
  N  25  1  0.09596000  0.83657300  0.45742000  1
  N  27  1  0.09606500  0.16256600  0.54218800  1
  N  29  1  0.90688100  0.09582000  0.65092900  1
  N  47  1  0.18801700  0.41016000  0.93879300  1
  N  48  1  0.18799600  0.58914300  0.06099300  1
  N  53  1  0.90653000  0.44472700  0.09602100  1
  N  55  1  0.09594100  0.62019800  0.16288200  1
  N  57  1  0.09613500  0.37911100  0.83687900  1
  N  59  1  0.90664600  0.55457300  0.90371000  1
  N  77  1  0.18815200  0.52795600  0.58933500  1
  N  78  1  0.18790700  0.47115200  0.41030000  1
  N  83  1  0.90676400  0.65065900  0.55480500  1
  N  85  1  0.09598500  0.54202000  0.37929100  1
  N  87  1  0.09610500  0.45715600  0.62041400  1
  N  89  1  0.90621500  0.34860000  0.44502500  1
