# generated using pymatgen
data_Zn3H15C24SN3O11
_symmetry_space_group_name_H-M   'P 1'
_cell_length_a   11.74005000
_cell_length_b   33.12973000
_cell_length_c   33.14740988
_cell_angle_alpha   60.01111360
_cell_angle_beta   89.99049597
_cell_angle_gamma   90.08045000
_symmetry_Int_Tables_number   1
_chemical_formula_structural   Zn3H15C24SN3O11
_chemical_formula_sum   'Zn27 H135 C216 S9 N27 O99'
_cell_volume   11166.47381931
_cell_formula_units_Z   9
loop_
 _symmetry_equiv_pos_site_id
 _symmetry_equiv_pos_as_xyz
  1  'x, y, z'
loop_
 _atom_site_type_symbol
 _atom_site_label
 _atom_site_symmetry_multiplicity
 _atom_site_fract_x
 _atom_site_fract_y
 _atom_site_fract_z
 _atom_site_occupancy
  Zn  Zn1  1  0.78562000  0.16973000  0.05483000  1.0
  Zn  Zn2  1  0.02657000  0.11294000  0.11183000  1.0
  Zn  Zn3  1  0.44833000  0.44040000  0.83656000  1.0
  Zn  Zn4  1  0.78546000  0.16960000  0.77549000  1.0
  Zn  Zn5  1  0.78557000  0.05481000  0.16970000  1.0
  Zn  Zn6  1  0.11699000  0.38867000  0.10833000  1.0
  Zn  Zn7  1  0.02658000  0.11299000  0.77523000  1.0
  Zn  Zn8  1  0.68931000  0.44207000  0.77834000  1.0
  Zn  Zn9  1  0.78558000  0.77538000  0.16978000  1.0
  Zn  Zn10  1  0.02647000  0.77548000  0.11156000  1.0
  Zn  Zn11  1  0.44858000  0.72174000  0.44189000  1.0
  Zn  Zn12  1  0.78523000  0.77548000  0.05486000  1.0
  Zn  Zn13  1  0.11672000  0.50300000  0.38824000  1.0
  Zn  Zn14  1  0.69001000  0.77800000  0.44224000  1.0
  Zn  Zn15  1  0.78572000  0.05483000  0.77540000  1.0
  Zn  Zn16  1  0.44880000  0.83636000  0.72203000  1.0
  Zn  Zn17  1  0.11706000  0.10850000  0.50303000  1.0
  Zn  Zn18  1  0.69003000  0.77794000  0.77979000  1.0
  Zn  Zn19  1  0.44825000  0.44050000  0.72290000  1.0
  Zn  Zn20  1  0.11703000  0.38826000  0.50304000  1.0
  Zn  Zn21  1  0.44882000  0.83643000  0.44190000  1.0
  Zn  Zn22  1  0.11675000  0.10875000  0.38818000  1.0
  Zn  Zn23  1  0.44863000  0.72160000  0.83641000  1.0
  Zn  Zn24  1  0.11670000  0.50309000  0.10875000  1.0
  Zn  Zn25  1  0.35779000  0.44639000  0.44476000  1.0
  Zn  Zn26  1  0.35783000  0.44645000  0.10881000  1.0
  Zn  Zn27  1  0.35777000  0.10889000  0.44473000  1.0
  H  H1  1  0.13405000  0.22031000  0.13465000  1.0
  H  H2  1  0.16760000  0.10643000  0.98717000  1.0
  H  H3  1  0.18402000  0.28825000  0.14612000  1.0
  H  H4  1  0.90720000  0.36386000  0.06837000  1.0
  H  H5  1  0.84056000  0.29738000  0.05723000  1.0
  H  H6  1  0.42934000  0.04807000  0.17767000  1.0
  H  H7  1  0.21424000  0.05134000  0.17532000  1.0
  H  H8  1  0.16750000  0.10646000  0.90628000  1.0
  H  H9  1  0.43082000  0.17770000  0.04789000  1.0
  H  H10  1  0.21571000  0.17579000  0.05079000  1.0
  H  H11  1  0.79987000  0.31256000  0.88632000  1.0
  H  H12  1  0.85236000  0.23360000  0.95423000  1.0
  H  H13  1  0.57647000  0.23465000  0.03095000  1.0
  H  H14  1  0.50701000  0.31162000  0.96441000  1.0
  H  H15  1  0.85125000  0.09007000  0.09014000  1.0
  H  H16  1  0.13556000  0.64557000  0.22007000  1.0
  H  H17  1  0.16822000  0.90638000  0.10651000  1.0
  H  H18  1  0.18470000  0.56609000  0.28790000  1.0
  H  H19  1  0.90744000  0.56816000  0.36347000  1.0
  H  H20  1  0.84159000  0.64583000  0.29712000  1.0
  H  H21  1  0.43049000  0.77447000  0.04781000  1.0
  H  H22  1  0.21537000  0.77361000  0.05061000  1.0
  H  H23  1  0.16805000  0.98738000  0.10633000  1.0
  H  H24  1  0.42929000  0.77429000  0.17762000  1.0
  H  H25  1  0.21419000  0.77347000  0.17515000  1.0
  H  H26  1  0.80171000  0.80065000  0.31267000  1.0
  H  H27  1  0.85162000  0.81236000  0.23332000  1.0
  H  H28  1  0.57445000  0.73464000  0.23504000  1.0
  H  H29  1  0.50718000  0.72359000  0.31246000  1.0
  H  H30  1  0.85112000  0.81981000  0.09031000  1.0
  H  H31  1  0.13552000  0.13464000  0.64517000  1.0
  H  H32  1  0.16799000  0.98742000  0.90627000  1.0
  H  H33  1  0.18486000  0.14621000  0.56572000  1.0
  H  H34  1  0.90716000  0.06849000  0.56796000  1.0
  H  H35  1  0.84130000  0.05716000  0.64566000  1.0
  H  H36  1  0.43089000  0.17766000  0.77449000  1.0
  H  H37  1  0.21578000  0.17585000  0.77342000  1.0
  H  H38  1  0.16794000  0.90638000  0.98699000  1.0
  H  H39  1  0.42919000  0.04806000  0.77419000  1.0
  H  H40  1  0.21409000  0.05141000  0.77322000  1.0
  H  H41  1  0.80374000  0.88638000  0.80164000  1.0
  H  H42  1  0.85313000  0.95450000  0.81285000  1.0
  H  H43  1  0.57676000  0.02993000  0.73464000  1.0
  H  H44  1  0.51090000  0.96334000  0.72353000  1.0
  H  H45  1  0.85114000  0.08990000  0.81976000  1.0
  H  H46  1  0.13324000  0.22017000  0.64526000  1.0
  H  H47  1  0.18362000  0.28817000  0.56605000  1.0
  H  H48  1  0.90671000  0.36378000  0.56805000  1.0
  H  H49  1  0.83937000  0.29727000  0.64543000  1.0
  H  H50  1  0.79875000  0.31249000  0.80105000  1.0
  H  H51  1  0.85170000  0.23345000  0.81226000  1.0
  H  H52  1  0.57626000  0.23425000  0.73443000  1.0
  H  H53  1  0.50651000  0.31127000  0.72377000  1.0
  H  H54  1  0.13480000  0.13441000  0.22002000  1.0
  H  H55  1  0.18448000  0.14600000  0.28785000  1.0
  H  H56  1  0.90701000  0.06832000  0.36349000  1.0
  H  H57  1  0.84050000  0.05710000  0.29711000  1.0
  H  H58  1  0.80353000  0.88633000  0.31205000  1.0
  H  H59  1  0.85302000  0.95441000  0.23277000  1.0
  H  H60  1  0.57665000  0.02990000  0.23554000  1.0
  H  H61  1  0.51073000  0.96335000  0.31320000  1.0
  H  H62  1  0.13337000  0.64577000  0.13434000  1.0
  H  H63  1  0.18340000  0.56647000  0.14580000  1.0
  H  H64  1  0.90668000  0.56820000  0.06812000  1.0
  H  H65  1  0.83943000  0.64553000  0.05719000  1.0
  H  H66  1  0.80163000  0.80064000  0.88663000  1.0
  H  H67  1  0.85181000  0.81233000  0.95426000  1.0
  H  H68  1  0.57497000  0.73450000  0.03040000  1.0
  H  H69  1  0.50721000  0.72358000  0.96401000  1.0
  H  H70  1  0.46545000  0.55367000  0.46689000  1.0
  H  H71  1  0.49936000  0.44025000  0.32030000  1.0
  H  H72  1  0.51715000  0.62149000  0.47825000  1.0
  H  H73  1  0.24032000  0.69761000  0.40099000  1.0
  H  H74  1  0.17173000  0.63125000  0.39013000  1.0
  H  H75  1  0.75978000  0.38126000  0.51079000  1.0
  H  H76  1  0.54492000  0.38452000  0.50831000  1.0
  H  H77  1  0.49929000  0.44031000  0.23932000  1.0
  H  H78  1  0.76162000  0.51106000  0.38106000  1.0
  H  H79  1  0.54674000  0.50914000  0.38379000  1.0
  H  H80  1  0.18162000  0.42320000  0.42350000  1.0
  H  H81  1  0.46806000  0.97822000  0.55365000  1.0
  H  H82  1  0.49981000  0.23963000  0.44002000  1.0
  H  H83  1  0.51763000  0.89924000  0.62204000  1.0
  H  H84  1  0.23930000  0.90170000  0.69693000  1.0
  H  H85  1  0.17347000  0.97910000  0.63008000  1.0
  H  H86  1  0.76139000  0.10801000  0.38098000  1.0
  H  H87  1  0.54649000  0.10723000  0.38367000  1.0
  H  H88  1  0.49962000  0.32048000  0.44018000  1.0
  H  H89  1  0.75998000  0.10783000  0.51082000  1.0
  H  H90  1  0.54511000  0.10715000  0.50826000  1.0
  H  H91  1  0.18158000  0.15309000  0.42360000  1.0
  H  H92  1  0.46847000  0.46863000  0.97776000  1.0
  H  H93  1  0.49949000  0.32078000  0.23921000  1.0
  H  H94  1  0.51796000  0.47876000  0.89898000  1.0
  H  H95  1  0.23971000  0.40088000  0.90216000  1.0
  H  H96  1  0.17363000  0.39086000  0.97929000  1.0
  H  H97  1  0.76163000  0.51108000  0.10796000  1.0
  H  H98  1  0.54672000  0.50925000  0.10702000  1.0
  H  H99  1  0.49934000  0.23973000  0.32000000  1.0
  H  H100  1  0.75976000  0.38131000  0.10788000  1.0
  H  H101  1  0.54489000  0.38462000  0.10702000  1.0
  H  H102  1  0.18124000  0.42323000  0.15302000  1.0
  H  H103  1  0.46551000  0.55370000  0.97946000  1.0
  H  H104  1  0.51703000  0.62147000  0.90027000  1.0
  H  H105  1  0.24013000  0.69758000  0.90143000  1.0
  H  H106  1  0.17173000  0.63126000  0.97869000  1.0
  H  H107  1  0.46839000  0.46855000  0.55351000  1.0
  H  H108  1  0.51774000  0.47891000  0.62203000  1.0
  H  H109  1  0.23954000  0.40099000  0.69679000  1.0
  H  H110  1  0.17370000  0.39076000  0.62979000  1.0
  H  H111  1  0.46569000  0.97941000  0.46693000  1.0
  H  H112  1  0.51603000  0.90003000  0.47868000  1.0
  H  H113  1  0.23884000  0.90114000  0.40148000  1.0
  H  H114  1  0.17161000  0.97866000  0.39019000  1.0
  H  H115  1  0.83164000  0.77412000  0.65334000  1.0
  H  H116  1  0.09338000  0.71426000  0.84420000  1.0
  H  H117  1  0.87835000  0.71658000  0.84201000  1.0
  H  H118  1  0.83153000  0.77416000  0.57248000  1.0
  H  H119  1  0.09216000  0.84420000  0.71455000  1.0
  H  H120  1  0.87723000  0.84112000  0.71752000  1.0
  H  H121  1  0.51451000  0.75701000  0.75665000  1.0
  H  H122  1  0.83089000  0.57208000  0.77428000  1.0
  H  H123  1  0.09258000  0.44147000  0.71423000  1.0
  H  H124  1  0.87760000  0.44080000  0.71696000  1.0
  H  H125  1  0.83055000  0.65299000  0.77435000  1.0
  H  H126  1  0.09141000  0.44134000  0.84406000  1.0
  H  H127  1  0.87638000  0.44068000  0.84149000  1.0
  H  H128  1  0.51191000  0.48556000  0.75727000  1.0
  H  H129  1  0.83027000  0.65310000  0.57249000  1.0
  H  H130  1  0.09211000  0.84422000  0.44131000  1.0
  H  H131  1  0.87720000  0.84118000  0.44133000  1.0
  H  H132  1  0.83056000  0.57223000  0.65340000  1.0
  H  H133  1  0.09337000  0.71429000  0.44146000  1.0
  H  H134  1  0.87834000  0.71664000  0.44128000  1.0
  H  H135  1  0.51444000  0.75696000  0.48631000  1.0
  C  C1  1  0.99835000  0.13646000  0.96889000  1.0
  C  C2  1  0.96624000  0.14139000  0.00919000  1.0
  C  C3  1  0.08151000  0.25147000  0.12020000  1.0
  C  C4  1  0.95125000  0.21343000  0.08856000  1.0
  C  C5  1  0.09908000  0.11891000  0.96178000  1.0
  C  C6  1  0.98333000  0.25395000  0.09520000  1.0
  C  C7  1  0.11008000  0.28900000  0.12601000  1.0
  C  C8  1  0.95379000  0.33116000  0.08292000  1.0
  C  C9  1  0.91778000  0.29462000  0.07658000  1.0
  C  C10  1  0.57569000  0.11328000  0.11324000  1.0
  C  C11  1  0.44642000  0.11325000  0.11317000  1.0
  C  C12  1  0.38463000  0.07710000  0.14933000  1.0
  C  C13  1  0.26604000  0.07867000  0.14817000  1.0
  C  C14  1  0.99826000  0.13647000  0.89463000  1.0
  C  C15  1  0.96620000  0.14139000  0.84941000  1.0
  C  C16  1  0.09902000  0.11892000  0.91924000  1.0
  C  C17  1  0.38545000  0.14948000  0.07688000  1.0
  C  C18  1  0.26687000  0.14855000  0.07823000  1.0
  C  C19  1  0.74791000  0.29562000  0.91768000  1.0
  C  C20  1  0.61440000  0.36415000  0.87985000  1.0
  C  C21  1  0.64880000  0.31750000  0.92041000  1.0
  C  C22  1  0.77793000  0.25257000  0.95521000  1.0
  C  C23  1  0.62212000  0.25283000  0.99800000  1.0
  C  C24  1  0.58454000  0.29534000  0.96146000  1.0
  C  C25  1  0.99862000  0.89465000  0.13638000  1.0
  C  C26  1  0.96638000  0.84938000  0.14127000  1.0
  C  C27  1  0.08272000  0.62883000  0.25119000  1.0
  C  C28  1  0.95228000  0.69836000  0.21311000  1.0
  C  C29  1  0.09950000  0.91934000  0.11887000  1.0
  C  C30  1  0.98452000  0.65131000  0.25367000  1.0
  C  C31  1  0.11086000  0.58546000  0.28865000  1.0
  C  C32  1  0.95432000  0.58631000  0.33081000  1.0
  C  C33  1  0.91874000  0.62923000  0.29433000  1.0
  C  C34  1  0.57555000  0.77351000  0.11323000  1.0
  C  C35  1  0.44627000  0.77364000  0.11310000  1.0
  C  C36  1  0.38521000  0.77374000  0.07678000  1.0
  C  C37  1  0.26662000  0.77340000  0.07805000  1.0
  C  C38  1  0.99860000  0.96901000  0.13634000  1.0
  C  C39  1  0.96645000  0.00937000  0.14122000  1.0
  C  C40  1  0.09947000  0.96193000  0.11882000  1.0
  C  C41  1  0.38455000  0.77364000  0.14924000  1.0
  C  C42  1  0.26597000  0.77331000  0.14801000  1.0
  C  C43  1  0.74886000  0.78625000  0.29595000  1.0
  C  C44  1  0.61779000  0.75441000  0.36552000  1.0
  C  C45  1  0.65029000  0.76129000  0.31832000  1.0
  C  C46  1  0.77754000  0.79219000  0.25258000  1.0
  C  C47  1  0.62108000  0.74919000  0.25322000  1.0
  C  C48  1  0.58475000  0.74285000  0.29605000  1.0
  C  C49  1  0.99845000  0.96915000  0.89461000  1.0
  C  C50  1  0.96641000  0.00949000  0.84939000  1.0
  C  C51  1  0.08269000  0.12019000  0.62849000  1.0
  C  C52  1  0.95230000  0.08856000  0.69818000  1.0
  C  C53  1  0.09932000  0.96201000  0.91920000  1.0
  C  C54  1  0.98445000  0.09515000  0.65106000  1.0
  C  C55  1  0.11093000  0.12605000  0.58513000  1.0
  C  C56  1  0.95418000  0.08297000  0.58611000  1.0
  C  C57  1  0.91856000  0.07655000  0.62903000  1.0
  C  C58  1  0.57562000  0.11320000  0.77346000  1.0
  C  C59  1  0.44637000  0.11321000  0.77358000  1.0
  C  C60  1  0.38548000  0.14947000  0.77367000  1.0
  C  C61  1  0.26689000  0.14860000  0.77321000  1.0
  C  C62  1  0.99825000  0.89479000  0.96881000  1.0
  C  C63  1  0.96617000  0.84950000  0.00910000  1.0
  C  C64  1  0.09924000  0.91940000  0.96169000  1.0
  C  C65  1  0.38451000  0.07710000  0.77352000  1.0
  C  C66  1  0.26594000  0.07871000  0.77309000  1.0
  C  C67  1  0.75118000  0.91755000  0.78696000  1.0
  C  C68  1  0.62037000  0.87905000  0.75586000  1.0
  C  C69  1  0.65317000  0.91989000  0.76193000  1.0
  C  C70  1  0.77945000  0.95518000  0.79266000  1.0
  C  C71  1  0.62344000  0.99725000  0.74931000  1.0
  C  C72  1  0.58785000  0.96063000  0.74300000  1.0
  C  C73  1  0.08063000  0.25131000  0.62860000  1.0
  C  C74  1  0.94983000  0.21304000  0.69806000  1.0
  C  C75  1  0.98208000  0.25370000  0.65101000  1.0
  C  C76  1  0.10951000  0.28888000  0.58536000  1.0
  C  C77  1  0.95313000  0.33105000  0.58618000  1.0
  C  C78  1  0.91676000  0.29444000  0.62896000  1.0
  C  C79  1  0.74721000  0.29547000  0.78660000  1.0
  C  C80  1  0.61503000  0.36424000  0.75551000  1.0
  C  C81  1  0.64846000  0.31740000  0.76178000  1.0
  C  C82  1  0.77736000  0.25239000  0.79223000  1.0
  C  C83  1  0.62175000  0.25256000  0.74912000  1.0
  C  C84  1  0.58409000  0.29513000  0.74302000  1.0
  C  C85  1  0.08196000  0.12003000  0.25114000  1.0
  C  C86  1  0.95106000  0.08867000  0.21304000  1.0
  C  C87  1  0.98346000  0.09512000  0.25361000  1.0
  C  C88  1  0.11042000  0.12591000  0.28860000  1.0
  C  C89  1  0.95374000  0.08288000  0.33079000  1.0
  C  C90  1  0.91780000  0.07649000  0.29430000  1.0
  C  C91  1  0.75101000  0.91750000  0.29558000  1.0
  C  C92  1  0.62034000  0.87909000  0.36522000  1.0
  C  C93  1  0.65302000  0.91988000  0.31828000  1.0
  C  C94  1  0.77931000  0.95512000  0.25226000  1.0
  C  C95  1  0.62332000  0.99721000  0.25354000  1.0
  C  C96  1  0.58770000  0.96062000  0.29645000  1.0
  C  C97  1  0.08058000  0.62899000  0.11998000  1.0
  C  C98  1  0.94976000  0.69840000  0.08865000  1.0
  C  C99  1  0.98203000  0.65130000  0.09520000  1.0
  C  C100  1  0.10932000  0.58570000  0.12576000  1.0
  C  C101  1  0.95308000  0.58636000  0.08276000  1.0
  C  C102  1  0.91673000  0.62913000  0.07655000  1.0
  C  C103  1  0.74890000  0.78621000  0.91779000  1.0
  C  C104  1  0.61776000  0.75436000  0.88009000  1.0
  C  C105  1  0.65031000  0.76125000  0.92041000  1.0
  C  C106  1  0.77779000  0.79210000  0.95522000  1.0
  C  C107  1  0.62147000  0.74906000  0.99765000  1.0
  C  C108  1  0.58486000  0.74279000  0.96115000  1.0
  C  C109  1  0.32967000  0.46979000  0.30222000  1.0
  C  C110  1  0.29762000  0.47461000  0.34257000  1.0
  C  C111  1  0.41317000  0.58489000  0.45254000  1.0
  C  C112  1  0.28127000  0.54699000  0.42122000  1.0
  C  C113  1  0.43069000  0.45251000  0.29499000  1.0
  C  C114  1  0.31431000  0.58747000  0.42782000  1.0
  C  C115  1  0.44274000  0.62238000  0.45829000  1.0
  C  C116  1  0.28643000  0.66481000  0.41551000  1.0
  C  C117  1  0.24938000  0.62829000  0.40931000  1.0
  C  C118  1  0.90665000  0.44656000  0.44657000  1.0
  C  C119  1  0.77729000  0.44653000  0.44635000  1.0
  C  C120  1  0.71530000  0.41036000  0.48242000  1.0
  C  C121  1  0.59672000  0.41192000  0.48120000  1.0
  C  C122  1  0.32960000  0.46983000  0.22798000  1.0
  C  C123  1  0.29752000  0.47470000  0.18279000  1.0
  C  C124  1  0.43065000  0.45253000  0.25244000  1.0
  C  C125  1  0.71635000  0.48278000  0.41003000  1.0
  C  C126  1  0.59776000  0.48187000  0.41128000  1.0
  C  C127  1  0.32978000  0.22802000  0.46946000  1.0
  C  C128  1  0.29773000  0.18278000  0.47421000  1.0
  C  C129  1  0.41507000  0.96176000  0.58473000  1.0
  C  C130  1  0.28411000  0.03134000  0.54616000  1.0
  C  C131  1  0.43092000  0.25260000  0.45229000  1.0
  C  C132  1  0.31664000  0.98434000  0.58688000  1.0
  C  C133  1  0.44344000  0.91860000  0.62252000  1.0
  C  C134  1  0.28639000  0.91970000  0.66431000  1.0
  C  C135  1  0.25079000  0.96245000  0.62754000  1.0
  C  C136  1  0.90660000  0.10680000  0.44658000  1.0
  C  C137  1  0.77723000  0.10712000  0.44632000  1.0
  C  C138  1  0.71618000  0.10727000  0.40996000  1.0
  C  C139  1  0.59759000  0.10697000  0.41118000  1.0
  C  C140  1  0.32968000  0.30228000  0.46966000  1.0
  C  C141  1  0.29762000  0.34259000  0.47467000  1.0
  C  C142  1  0.43083000  0.29514000  0.45237000  1.0
  C  C143  1  0.71539000  0.10718000  0.48241000  1.0
  C  C144  1  0.59681000  0.10689000  0.48115000  1.0
  C  C145  1  0.32950000  0.30278000  0.22779000  1.0
  C  C146  1  0.29758000  0.34330000  0.18266000  1.0
  C  C147  1  0.41544000  0.45373000  0.96156000  1.0
  C  C148  1  0.28412000  0.42279000  0.03120000  1.0
  C  C149  1  0.43068000  0.29545000  0.25224000  1.0
  C  C150  1  0.31695000  0.42897000  0.98428000  1.0
  C  C151  1  0.44386000  0.45885000  0.91849000  1.0
  C  C152  1  0.28687000  0.41570000  0.91996000  1.0
  C  C153  1  0.25111000  0.40998000  0.96259000  1.0
  C  C154  1  0.90659000  0.44663000  0.10681000  1.0
  C  C155  1  0.77725000  0.44657000  0.10711000  1.0
  C  C156  1  0.71634000  0.48283000  0.10721000  1.0
  C  C157  1  0.59775000  0.48196000  0.10680000  1.0
  C  C158  1  0.32944000  0.22828000  0.30195000  1.0
  C  C159  1  0.29744000  0.18300000  0.34230000  1.0
  C  C160  1  0.43061000  0.25282000  0.29471000  1.0
  C  C161  1  0.71528000  0.41041000  0.10716000  1.0
  C  C162  1  0.59671000  0.41202000  0.10676000  1.0
  C  C163  1  0.41316000  0.58491000  0.96260000  1.0
  C  C164  1  0.28129000  0.54714000  0.03184000  1.0
  C  C165  1  0.31434000  0.58752000  0.98474000  1.0
  C  C166  1  0.44266000  0.62235000  0.91937000  1.0
  C  C167  1  0.28630000  0.66480000  0.91971000  1.0
  C  C168  1  0.24934000  0.62832000  0.96243000  1.0
  C  C169  1  0.41531000  0.45374000  0.58458000  1.0
  C  C170  1  0.28405000  0.42278000  0.54589000  1.0
  C  C171  1  0.31685000  0.42896000  0.58664000  1.0
  C  C172  1  0.44365000  0.45897000  0.62248000  1.0
  C  C173  1  0.28671000  0.41581000  0.66417000  1.0
  C  C174  1  0.25105000  0.40998000  0.62731000  1.0
  C  C175  1  0.41298000  0.96252000  0.45267000  1.0
  C  C176  1  0.28147000  0.03185000  0.42109000  1.0
  C  C177  1  0.31435000  0.98472000  0.42785000  1.0
  C  C178  1  0.44189000  0.91917000  0.45860000  1.0
  C  C179  1  0.28541000  0.91951000  0.41584000  1.0
  C  C180  1  0.24903000  0.96235000  0.40945000  1.0
  C  C181  1  0.66061000  0.80243000  0.63602000  1.0
  C  C182  1  0.62877000  0.80721000  0.67650000  1.0
  C  C183  1  0.76228000  0.78586000  0.62835000  1.0
  C  C184  1  0.23844000  0.78041000  0.78017000  1.0
  C  C185  1  0.10921000  0.77973000  0.77980000  1.0
  C  C186  1  0.04821000  0.74313000  0.81589000  1.0
  C  C187  1  0.92964000  0.74411000  0.81481000  1.0
  C  C188  1  0.66060000  0.80252000  0.56160000  1.0
  C  C189  1  0.62875000  0.80750000  0.51628000  1.0
  C  C190  1  0.76225000  0.78589000  0.58579000  1.0
  C  C191  1  0.04750000  0.81566000  0.74352000  1.0
  C  C192  1  0.92896000  0.81411000  0.74491000  1.0
  C  C193  1  0.65973000  0.56107000  0.80251000  1.0
  C  C194  1  0.62832000  0.51573000  0.80738000  1.0
  C  C195  1  0.76144000  0.58538000  0.78594000  1.0
  C  C196  1  0.23773000  0.43880000  0.78053000  1.0
  C  C197  1  0.10848000  0.44031000  0.77970000  1.0
  C  C198  1  0.04739000  0.44075000  0.74321000  1.0
  C  C199  1  0.92882000  0.44050000  0.74446000  1.0
  C  C200  1  0.65959000  0.63527000  0.80279000  1.0
  C  C201  1  0.62827000  0.67553000  0.80796000  1.0
  C  C202  1  0.76130000  0.62788000  0.78604000  1.0
  C  C203  1  0.04677000  0.44069000  0.81566000  1.0
  C  C204  1  0.92819000  0.44043000  0.81441000  1.0
  C  C205  1  0.65929000  0.63546000  0.56182000  1.0
  C  C206  1  0.62815000  0.67579000  0.51647000  1.0
  C  C207  1  0.76102000  0.62800000  0.58592000  1.0
  C  C208  1  0.23844000  0.78042000  0.43945000  1.0
  C  C209  1  0.10919000  0.77974000  0.44048000  1.0
  C  C210  1  0.04747000  0.81568000  0.44084000  1.0
  C  C211  1  0.92892000  0.81415000  0.44096000  1.0
  C  C212  1  0.65944000  0.56122000  0.63615000  1.0
  C  C213  1  0.62816000  0.51589000  0.67657000  1.0
  C  C214  1  0.76116000  0.58550000  0.62845000  1.0
  C  C215  1  0.04819000  0.74317000  0.44092000  1.0
  C  C216  1  0.92963000  0.74416000  0.44100000  1.0
  S  S1  1  0.90309000  0.15242000  0.92381000  1.0
  S  S2  1  0.90330000  0.92382000  0.15228000  1.0
  S  S3  1  0.90298000  0.92403000  0.92378000  1.0
  S  S4  1  0.23420000  0.48555000  0.25726000  1.0
  S  S5  1  0.23414000  0.25723000  0.48521000  1.0
  S  S6  1  0.23385000  0.25772000  0.25705000  1.0
  S  S7  1  0.56459000  0.81754000  0.59131000  1.0
  S  S8  1  0.56351000  0.59050000  0.81776000  1.0
  S  S9  1  0.56313000  0.59071000  0.59155000  1.0
  N  N1  1  0.04797000  0.32853000  0.10746000  1.0
  N  N2  1  0.20784000  0.11384000  0.11332000  1.0
  N  N3  1  0.71661000  0.23134000  0.99499000  1.0
  N  N4  1  0.38137000  0.43995000  0.89788000  1.0
  N  N5  1  0.04838000  0.56439000  0.32813000  1.0
  N  N6  1  0.20769000  0.77307000  0.11311000  1.0
  N  N7  1  0.71550000  0.77374000  0.23142000  1.0
  N  N8  1  0.38104000  0.66202000  0.43989000  1.0
  N  N9  1  0.04843000  0.10754000  0.56415000  1.0
  N  N10  1  0.20781000  0.11390000  0.77279000  1.0
  N  N11  1  0.71718000  0.99468000  0.77404000  1.0
  N  N12  1  0.38083000  0.89776000  0.66198000  1.0
  N  N13  1  0.04747000  0.32842000  0.56435000  1.0
  N  N14  1  0.71630000  0.23114000  0.77362000  1.0
  N  N15  1  0.38109000  0.44014000  0.66196000  1.0
  N  N16  1  0.04798000  0.10748000  0.32810000  1.0
  N  N17  1  0.71710000  0.99462000  0.23139000  1.0
  N  N18  1  0.37988000  0.89788000  0.44027000  1.0
  N  N19  1  0.04728000  0.56455000  0.10730000  1.0
  N  N20  1  0.71602000  0.77356000  0.99490000  1.0
  N  N21  1  0.38090000  0.66199000  0.89812000  1.0
  N  N22  1  0.53867000  0.44715000  0.44633000  1.0
  N  N23  1  0.53862000  0.10662000  0.44624000  1.0
  N  N24  1  0.53868000  0.44727000  0.10639000  1.0
  N  N25  1  0.87084000  0.77907000  0.78004000  1.0
  N  N26  1  0.86997000  0.44001000  0.77960000  1.0
  N  N27  1  0.87082000  0.77913000  0.44083000  1.0
  O  O1  1  0.85153000  0.10714000  0.10703000  1.0
  O  O2  1  0.04059000  0.13159000  0.04037000  1.0
  O  O3  1  0.84905000  0.21363000  0.07517000  1.0
  O  O4  1  0.86325000  0.15544000  0.00838000  1.0
  O  O5  1  0.62238000  0.14801000  0.07864000  1.0
  O  O6  1  0.02850000  0.18391000  0.09651000  1.0
  O  O7  1  0.04059000  0.13153000  0.82808000  1.0
  O  O8  1  0.86326000  0.15548000  0.83613000  1.0
  O  O9  1  0.62233000  0.07873000  0.14792000  1.0
  O  O10  1  0.51090000  0.37614000  0.88016000  1.0
  O  O11  1  0.69096000  0.38652000  0.85023000  1.0
  O  O12  1  0.51431000  0.45161000  0.77410000  1.0
  O  O13  1  0.04063000  0.04069000  0.13132000  1.0
  O  O14  1  0.52509000  0.50233000  0.82086000  1.0
  O  O15  1  0.28447000  0.43800000  0.81556000  1.0
  O  O16  1  0.02829000  0.09652000  0.18350000  1.0
  O  O17  1  0.85152000  0.78585000  0.10708000  1.0
  O  O18  1  0.04052000  0.82802000  0.13139000  1.0
  O  O19  1  0.85032000  0.71152000  0.21376000  1.0
  O  O20  1  0.86325000  0.83614000  0.15540000  1.0
  O  O21  1  0.62225000  0.77325000  0.14799000  1.0
  O  O22  1  0.02879000  0.71983000  0.18312000  1.0
  O  O23  1  0.86338000  0.00843000  0.15537000  1.0
  O  O24  1  0.62220000  0.77350000  0.07859000  1.0
  O  O25  1  0.51384000  0.74337000  0.37758000  1.0
  O  O26  1  0.69645000  0.75988000  0.38832000  1.0
  O  O27  1  0.51476000  0.77379000  0.45236000  1.0
  O  O28  1  0.04055000  0.82824000  0.04027000  1.0
  O  O29  1  0.52540000  0.67523000  0.50291000  1.0
  O  O30  1  0.28526000  0.74554000  0.44002000  1.0
  O  O31  1  0.02824000  0.72094000  0.09473000  1.0
  O  O32  1  0.85154000  0.10707000  0.78582000  1.0
  O  O33  1  0.04071000  0.04073000  0.82793000  1.0
  O  O34  1  0.85029000  0.07475000  0.71143000  1.0
  O  O35  1  0.86330000  0.00858000  0.83623000  1.0
  O  O36  1  0.62227000  0.07872000  0.77314000  1.0
  O  O37  1  0.02895000  0.09699000  0.71963000  1.0
  O  O38  1  0.86322000  0.83610000  0.00832000  1.0
  O  O39  1  0.62234000  0.14785000  0.77350000  1.0
  O  O40  1  0.51882000  0.87992000  0.74156000  1.0
  O  O41  1  0.69632000  0.84866000  0.76529000  1.0
  O  O42  1  0.51479000  0.77365000  0.77397000  1.0
  O  O43  1  0.52530000  0.82050000  0.67632000  1.0
  O  O44  1  0.28513000  0.81595000  0.74635000  1.0
  O  O45  1  0.02816000  0.18427000  0.72015000  1.0
  O  O46  1  0.84654000  0.21227000  0.71072000  1.0
  O  O47  1  0.51235000  0.37686000  0.74257000  1.0
  O  O48  1  0.69165000  0.38617000  0.76334000  1.0
  O  O49  1  0.52487000  0.50253000  0.67671000  1.0
  O  O50  1  0.28464000  0.43799000  0.74632000  1.0
  O  O51  1  0.84841000  0.07557000  0.21321000  1.0
  O  O52  1  0.51894000  0.88000000  0.37878000  1.0
  O  O53  1  0.69629000  0.84867000  0.38609000  1.0
  O  O54  1  0.52553000  0.82126000  0.50310000  1.0
  O  O55  1  0.28515000  0.81591000  0.43785000  1.0
  O  O56  1  0.84619000  0.71069000  0.07715000  1.0
  O  O57  1  0.51381000  0.74336000  0.87906000  1.0
  O  O58  1  0.69646000  0.75983000  0.85182000  1.0
  O  O59  1  0.52570000  0.67480000  0.82235000  1.0
  O  O60  1  0.28528000  0.74549000  0.81440000  1.0
  O  O61  1  0.18273000  0.44033000  0.44033000  1.0
  O  O62  1  0.37215000  0.46473000  0.37371000  1.0
  O  O63  1  0.17755000  0.54626000  0.40977000  1.0
  O  O64  1  0.19472000  0.48863000  0.34189000  1.0
  O  O65  1  0.95351000  0.48125000  0.41198000  1.0
  O  O66  1  0.35937000  0.51833000  0.42726000  1.0
  O  O67  1  0.37207000  0.46480000  0.16154000  1.0
  O  O68  1  0.19464000  0.48876000  0.16947000  1.0
  O  O69  1  0.95335000  0.41209000  0.48133000  1.0
  O  O70  1  0.37194000  0.37383000  0.46496000  1.0
  O  O71  1  0.35995000  0.43204000  0.51549000  1.0
  O  O72  1  0.18285000  0.11912000  0.44031000  1.0
  O  O73  1  0.37236000  0.16120000  0.46482000  1.0
  O  O74  1  0.18242000  0.04469000  0.54707000  1.0
  O  O75  1  0.19426000  0.16969000  0.48768000  1.0
  O  O76  1  0.95334000  0.10645000  0.48139000  1.0
  O  O77  1  0.36012000  0.05260000  0.51586000  1.0
  O  O78  1  0.19451000  0.34171000  0.48873000  1.0
  O  O79  1  0.95344000  0.10671000  0.41201000  1.0
  O  O80  1  0.37197000  0.16167000  0.37341000  1.0
  O  O81  1  0.35923000  0.05432000  0.42766000  1.0
  O  O82  1  0.18274000  0.44063000  0.11908000  1.0
  O  O83  1  0.37262000  0.37416000  0.16099000  1.0
  O  O84  1  0.18248000  0.40833000  0.04461000  1.0
  O  O85  1  0.19397000  0.34309000  0.16972000  1.0
  O  O86  1  0.95327000  0.41219000  0.10641000  1.0
  O  O87  1  0.35992000  0.43201000  0.05240000  1.0
  O  O88  1  0.19445000  0.16960000  0.34167000  1.0
  O  O89  1  0.95347000  0.48128000  0.10677000  1.0
  O  O90  1  0.35920000  0.51838000  0.05438000  1.0
  O  O91  1  0.17772000  0.54669000  0.04409000  1.0
  O  O92  1  0.18244000  0.40834000  0.54689000  1.0
  O  O93  1  0.17811000  0.04417000  0.40898000  1.0
  O  O94  1  0.70372000  0.79806000  0.70729000  1.0
  O  O95  1  0.70339000  0.79812000  0.49469000  1.0
  O  O96  1  0.70310000  0.70665000  0.79805000  1.0
  O  O97  1  0.70372000  0.49433000  0.79810000  1.0
  O  O98  1  0.70392000  0.49441000  0.70708000  1.0
  O  O99  1  0.70329000  0.70675000  0.49522000  1.0
