# generated using pymatgen
data_LaH7C15O7
_symmetry_space_group_name_H-M   'P 1'
_cell_length_a   9.37164000
_cell_length_b   9.64053000
_cell_length_c   11.64714000
_cell_angle_alpha   91.00760000
_cell_angle_beta   99.27177000
_cell_angle_gamma   108.11916000
_symmetry_Int_Tables_number   1
_chemical_formula_structural   LaH7C15O7
_chemical_formula_sum   'La2 H14 C30 O14'
_cell_volume   984.46982806
_cell_formula_units_Z   2
loop_
 _symmetry_equiv_pos_site_id
 _symmetry_equiv_pos_as_xyz
  1  'x, y, z'
loop_
 _atom_site_type_symbol
 _atom_site_label
 _atom_site_symmetry_multiplicity
 _atom_site_fract_x
 _atom_site_fract_y
 _atom_site_fract_z
 _atom_site_occupancy
  La  La1  1  0.71649000  0.96889000  0.05668000  1.0
  La  La2  1  0.28352000  0.03111000  0.94331000  1.0
  H  H1  1  0.67570000  0.52398000  0.96360000  1.0
  H  H2  1  0.81165000  0.20039000  0.78689000  1.0
  H  H3  1  0.09979000  0.64840000  0.83117000  1.0
  H  H4  1  0.82001000  0.42288000  0.59110000  1.0
  H  H5  1  0.72021000  0.29837000  0.39078000  1.0
  H  H6  1  0.07806000  0.10326000  0.42946000  1.0
  H  H7  1  0.17956000  0.22891000  0.63047000  1.0
  H  H8  1  0.32430000  0.47602000  0.03640000  1.0
  H  H9  1  0.18835000  0.79961000  0.21311000  1.0
  H  H10  1  0.90022000  0.35160000  0.16883000  1.0
  H  H11  1  0.17999000  0.57712000  0.40890000  1.0
  H  H12  1  0.27980000  0.70163000  0.60922000  1.0
  H  H13  1  0.92194000  0.89674000  0.57054000  1.0
  H  H14  1  0.82045000  0.77109000  0.36952000  1.0
  C  C1  1  0.92474000  0.75517000  0.95426000  1.0
  C  C2  1  0.89199000  0.60232000  0.90466000  1.0
  C  C3  1  0.75670000  0.49512000  0.91860000  1.0
  C  C4  1  0.72928000  0.34953000  0.87905000  1.0
  C  C5  1  0.59031000  0.23663000  0.90354000  1.0
  C  C6  1  0.83179000  0.31270000  0.81869000  1.0
  C  C7  1  0.96048000  0.42306000  0.79801000  1.0
  C  C8  1  0.99502000  0.56625000  0.84418000  1.0
  C  C9  1  0.00284000  0.32849000  0.62226000  1.0
  C  C10  1  0.87476000  0.35179000  0.55570000  1.0
  C  C11  1  0.81969000  0.28274000  0.44416000  1.0
  C  C12  1  0.89070000  0.19048000  0.39910000  1.0
  C  C13  1  0.82365000  0.10880000  0.28429000  1.0
  C  C14  1  0.02306000  0.17390000  0.46528000  1.0
  C  C15  1  0.08014000  0.24355000  0.57642000  1.0
  C  C16  1  0.07527000  0.24483000  0.04574000  1.0
  C  C17  1  0.10801000  0.39768000  0.09534000  1.0
  C  C18  1  0.24331000  0.50488000  0.08140000  1.0
  C  C19  1  0.27072000  0.65047000  0.12095000  1.0
  C  C20  1  0.40969000  0.76337000  0.09646000  1.0
  C  C21  1  0.16821000  0.68730000  0.18131000  1.0
  C  C22  1  0.03953000  0.57694000  0.20199000  1.0
  C  C23  1  0.00498000  0.43375000  0.15582000  1.0
  C  C24  1  0.99716000  0.67151000  0.37774000  1.0
  C  C25  1  0.12524000  0.64821000  0.44430000  1.0
  C  C26  1  0.18032000  0.71726000  0.55584000  1.0
  C  C27  1  0.10931000  0.80952000  0.60090000  1.0
  C  C28  1  0.17635000  0.89120000  0.71571000  1.0
  C  C29  1  0.97694000  0.82610000  0.53472000  1.0
  C  C30  1  0.91987000  0.75645000  0.42357000  1.0
  O  O1  1  0.06174000  0.84047000  0.97204000  1.0
  O  O2  1  0.81257000  0.79191000  0.97787000  1.0
  O  O3  1  0.47273000  0.27211000  0.91121000  1.0
  O  O4  1  0.59011000  0.10257000  0.91738000  1.0
  O  O5  1  0.06196000  0.39003000  0.73525000  1.0
  O  O6  1  0.71460000  0.13906000  0.21801000  1.0
  O  O7  1  0.87450000  0.00766000  0.25040000  1.0
  O  O8  1  0.93826000  0.15953000  0.02796000  1.0
  O  O9  1  0.18744000  0.20809000  0.02213000  1.0
  O  O10  1  0.52727000  0.72789000  0.08879000  1.0
  O  O11  1  0.40989000  0.89743000  0.08262000  1.0
  O  O12  1  0.93804000  0.60997000  0.26475000  1.0
  O  O13  1  0.28540000  0.86094000  0.78199000  1.0
  O  O14  1  0.12550000  0.99234000  0.74960000  1.0
