# generated using pymatgen
data_NiH14C22N3O4
_symmetry_space_group_name_H-M   'P 1'
_cell_length_a   11.61743000
_cell_length_b   11.62011000
_cell_length_c   16.86309000
_cell_angle_alpha   76.04780000
_cell_angle_beta   76.10513000
_cell_angle_gamma   84.61404000
_symmetry_Int_Tables_number   1
_chemical_formula_structural   NiH14C22N3O4
_chemical_formula_sum   'Ni4 H56 C88 N12 O16'
_cell_volume   2143.07374548
_cell_formula_units_Z   4
loop_
 _symmetry_equiv_pos_site_id
 _symmetry_equiv_pos_as_xyz
  1  'x, y, z'
loop_
 _atom_site_type_symbol
 _atom_site_label
 _atom_site_symmetry_multiplicity
 _atom_site_fract_x
 _atom_site_fract_y
 _atom_site_fract_z
 _atom_site_occupancy
  Ni  Ni1  1  0.56747000  0.92868000  0.85027000  1.0
  Ni  Ni2  1  0.07128000  0.43246000  0.64969000  1.0
  Ni  Ni3  1  0.43254000  0.07131000  0.14973000  1.0
  Ni  Ni4  1  0.92873000  0.56754000  0.35031000  1.0
  H  H1  1  0.77802000  0.30725000  0.59072000  1.0
  H  H2  1  0.92879000  0.15272000  0.38084000  1.0
  H  H3  1  0.73616000  0.93901000  0.61527000  1.0
  H  H4  1  0.75676000  0.80243000  0.56629000  1.0
  H  H5  1  0.80822000  0.62486000  0.50695000  1.0
  H  H6  1  0.02938000  0.81259000  0.29374000  1.0
  H  H7  1  0.99167000  0.99858000  0.34477000  1.0
  H  H8  1  0.76768000  0.70834000  0.84253000  1.0
  H  H9  1  0.77378000  0.57248000  0.72711000  1.0
  H  H10  1  0.45324000  0.78378000  0.75321000  1.0
  H  H11  1  0.47850000  0.77876000  0.60724000  1.0
  H  H12  1  0.42655000  0.69782000  0.50000000  1.0
  H  H13  1  0.60482000  0.36570000  0.58899000  1.0
  H  H14  1  0.66157000  0.44767000  0.69246000  1.0
  H  H15  1  0.69237000  0.22187000  0.90935000  1.0
  H  H16  1  0.84737000  0.07128000  0.11921000  1.0
  H  H17  1  0.06076000  0.26382000  0.88465000  1.0
  H  H18  1  0.19743000  0.24322000  0.93377000  1.0
  H  H19  1  0.37517000  0.19179000  0.99314000  1.0
  H  H20  1  0.18766000  0.97046000  0.20637000  1.0
  H  H21  1  0.00153000  0.00817000  0.15535000  1.0
  H  H22  1  0.29165000  0.23215000  0.65760000  1.0
  H  H23  1  0.42773000  0.22629000  0.77293000  1.0
  H  H24  1  0.21591000  0.54650000  0.74673000  1.0
  H  H25  1  0.22117000  0.52134000  0.89260000  1.0
  H  H26  1  0.30211000  0.57335000  0.99983000  1.0
  H  H27  1  0.63433000  0.39522000  0.91117000  1.0
  H  H28  1  0.55246000  0.33852000  0.80766000  1.0
  H  H29  1  0.22199000  0.69274000  0.40928000  1.0
  H  H30  1  0.07122000  0.84728000  0.61916000  1.0
  H  H31  1  0.26385000  0.06099000  0.38473000  1.0
  H  H32  1  0.24325000  0.19757000  0.43371000  1.0
  H  H33  1  0.19179000  0.37514000  0.49305000  1.0
  H  H34  1  0.97063000  0.18741000  0.70626000  1.0
  H  H35  1  0.00834000  0.00141000  0.65523000  1.0
  H  H36  1  0.23233000  0.29165000  0.15747000  1.0
  H  H37  1  0.22623000  0.42751000  0.27289000  1.0
  H  H38  1  0.54677000  0.21621000  0.24679000  1.0
  H  H39  1  0.52151000  0.22123000  0.39276000  1.0
  H  H40  1  0.57346000  0.30218000  0.49999000  1.0
  H  H41  1  0.39519000  0.63429000  0.41101000  1.0
  H  H42  1  0.33844000  0.55233000  0.30754000  1.0
  H  H43  1  0.30764000  0.77812000  0.09064000  1.0
  H  H44  1  0.15264000  0.92872000  0.88079000  1.0
  H  H45  1  0.93924000  0.73617000  0.11535000  1.0
  H  H46  1  0.80258000  0.75678000  0.06623000  1.0
  H  H47  1  0.62484000  0.80821000  0.00686000  1.0
  H  H48  1  0.81235000  0.02953000  0.79363000  1.0
  H  H49  1  0.99848000  0.99183000  0.84465000  1.0
  H  H50  1  0.70836000  0.76784000  0.34240000  1.0
  H  H51  1  0.57228000  0.77370000  0.22707000  1.0
  H  H52  1  0.78410000  0.45349000  0.25327000  1.0
  H  H53  1  0.77884000  0.47865000  0.10740000  1.0
  H  H54  1  0.69790000  0.42665000  0.00017000  1.0
  H  H55  1  0.36568000  0.60477000  0.08883000  1.0
  H  H56  1  0.44755000  0.66147000  0.19234000  1.0
  C  C1  1  0.66653000  0.11000000  0.69717000  1.0
  C  C2  1  0.74493000  0.12179000  0.61002000  1.0
  C  C3  1  0.79184000  0.23017000  0.56331000  1.0
  C  C4  1  0.85655000  0.23964000  0.48049000  1.0
  C  C5  1  0.87943000  0.13993000  0.44566000  1.0
  C  C6  1  0.83941000  0.02837000  0.49355000  1.0
  C  C7  1  0.77092000  0.02206000  0.57528000  1.0
  C  C8  1  0.89585000  0.35802000  0.42854000  1.0
  C  C9  1  0.86749000  0.91998000  0.46027000  1.0
  C  C10  1  0.81790000  0.81072000  0.50553000  1.0
  C  C11  1  0.84571000  0.71020000  0.47318000  1.0
  C  C12  1  0.96950000  0.81547000  0.35371000  1.0
  C  C13  1  0.94638000  0.91921000  0.38268000  1.0
  C  C14  1  0.70325000  0.70429000  0.80652000  1.0
  C  C15  1  0.70866000  0.63779000  0.74867000  1.0
  C  C16  1  0.53941000  0.74638000  0.76174000  1.0
  C  C17  1  0.57281000  0.61872000  0.65764000  1.0
  C  C18  1  0.50626000  0.68800000  0.60300000  1.0
  C  C19  1  0.47775000  0.64145000  0.54159000  1.0
  C  C20  1  0.51405000  0.52497000  0.53293000  1.0
  C  C21  1  0.57876000  0.45747000  0.58988000  1.0
  C  C22  1  0.60991000  0.50297000  0.65055000  1.0
  C  C23  1  0.88974000  0.33342000  0.80274000  1.0
  C  C24  1  0.87796000  0.25503000  0.88993000  1.0
  C  C25  1  0.76962000  0.20811000  0.93666000  1.0
  C  C26  1  0.76033000  0.14343000  0.01951000  1.0
  C  C27  1  0.86009000  0.12056000  0.05436000  1.0
  C  C28  1  0.97161000  0.16054000  0.00644000  1.0
  C  C29  1  0.97777000  0.22904000  0.92468000  1.0
  C  C30  1  0.64200000  0.10434000  0.07154000  1.0
  C  C31  1  0.08002000  0.13242000  0.03978000  1.0
  C  C32  1  0.18924000  0.18205000  0.99453000  1.0
  C  C33  1  0.28982000  0.15428000  0.02689000  1.0
  C  C34  1  0.18466000  0.03040000  0.14639000  1.0
  C  C35  1  0.08086000  0.05350000  0.11741000  1.0
  C  C36  1  0.29564000  0.29657000  0.69358000  1.0
  C  C37  1  0.36229000  0.29131000  0.75137000  1.0
  C  C38  1  0.25341000  0.46036000  0.73829000  1.0
  C  C39  1  0.38130000  0.42715000  0.84233000  1.0
  C  C40  1  0.31196000  0.49365000  0.89690000  1.0
  C  C41  1  0.35852000  0.52219000  0.95831000  1.0
  C  C42  1  0.47503000  0.48595000  0.96707000  1.0
  C  C43  1  0.54256000  0.42127000  0.91020000  1.0
  C  C44  1  0.49707000  0.39012000  0.84950000  1.0
  C  C45  1  0.33348000  0.89000000  0.30282000  1.0
  C  C46  1  0.25508000  0.87820000  0.38998000  1.0
  C  C47  1  0.20817000  0.76982000  0.43669000  1.0
  C  C48  1  0.14346000  0.76035000  0.51951000  1.0
  C  C49  1  0.12058000  0.86006000  0.55434000  1.0
  C  C50  1  0.16060000  0.97163000  0.50645000  1.0
  C  C51  1  0.22909000  0.97793000  0.42472000  1.0
  C  C52  1  0.10416000  0.64197000  0.57146000  1.0
  C  C53  1  0.13252000  0.08002000  0.53973000  1.0
  C  C54  1  0.18211000  0.18928000  0.49447000  1.0
  C  C55  1  0.15430000  0.28980000  0.52682000  1.0
  C  C56  1  0.03051000  0.18453000  0.64628000  1.0
  C  C57  1  0.05363000  0.08079000  0.61732000  1.0
  C  C58  1  0.29676000  0.29570000  0.19348000  1.0
  C  C59  1  0.29135000  0.36221000  0.25133000  1.0
  C  C60  1  0.46060000  0.25361000  0.23826000  1.0
  C  C61  1  0.42720000  0.38128000  0.34236000  1.0
  C  C62  1  0.49375000  0.31199000  0.39700000  1.0
  C  C63  1  0.52226000  0.35855000  0.45841000  1.0
  C  C64  1  0.48596000  0.47503000  0.46707000  1.0
  C  C65  1  0.42125000  0.54252000  0.41012000  1.0
  C  C66  1  0.39010000  0.49702000  0.34944000  1.0
  C  C67  1  0.11027000  0.66658000  0.19726000  1.0
  C  C68  1  0.12205000  0.74496000  0.11007000  1.0
  C  C69  1  0.23039000  0.79188000  0.06334000  1.0
  C  C70  1  0.23968000  0.85657000  0.98049000  1.0
  C  C71  1  0.13992000  0.87943000  0.94564000  1.0
  C  C72  1  0.02840000  0.83945000  0.99356000  1.0
  C  C73  1  0.02224000  0.77096000  0.07532000  1.0
  C  C74  1  0.35801000  0.89566000  0.92846000  1.0
  C  C75  1  0.91999000  0.86757000  0.96021000  1.0
  C  C76  1  0.81077000  0.81794000  0.00547000  1.0
  C  C77  1  0.71018000  0.84571000  0.97310000  1.0
  C  C78  1  0.81535000  0.96960000  0.85361000  1.0
  C  C79  1  0.91915000  0.94649000  0.88259000  1.0
  C  C80  1  0.70437000  0.70342000  0.30642000  1.0
  C  C81  1  0.63772000  0.70869000  0.24863000  1.0
  C  C82  1  0.74660000  0.53963000  0.26171000  1.0
  C  C83  1  0.61871000  0.57284000  0.15767000  1.0
  C  C84  1  0.68805000  0.50634000  0.10310000  1.0
  C  C85  1  0.64148000  0.47781000  0.04169000  1.0
  C  C86  1  0.52498000  0.51405000  0.03293000  1.0
  C  C87  1  0.45745000  0.57872000  0.08980000  1.0
  C  C88  1  0.50294000  0.60987000  0.15050000  1.0
  N  N1  1  0.91952000  0.71205000  0.39754000  1.0
  N  N2  1  0.59760000  0.77129000  0.81427000  1.0
  N  N3  1  0.60433000  0.66566000  0.71997000  1.0
  N  N4  1  0.28803000  0.08043000  0.10256000  1.0
  N  N5  1  0.22847000  0.40212000  0.68583000  1.0
  N  N6  1  0.33435000  0.39560000  0.78002000  1.0
  N  N7  1  0.08049000  0.28795000  0.60246000  1.0
  N  N8  1  0.40241000  0.22870000  0.18573000  1.0
  N  N9  1  0.39568000  0.33434000  0.28003000  1.0
  N  N10  1  0.71198000  0.91957000  0.89744000  1.0
  N  N11  1  0.77154000  0.59787000  0.31417000  1.0
  N  N12  1  0.66566000  0.60440000  0.21998000  1.0
  O  O1  1  0.64537000  0.00015000  0.73404000  1.0
  O  O2  1  0.62979000  0.19947000  0.72593000  1.0
  O  O3  1  0.88039000  0.44616000  0.46426000  1.0
  O  O4  1  0.93951000  0.37278000  0.34985000  1.0
  O  O5  1  0.99962000  0.35455000  0.76594000  1.0
  O  O6  1  0.80026000  0.37018000  0.77394000  1.0
  O  O7  1  0.55387000  0.11943000  0.03576000  1.0
  O  O8  1  0.62724000  0.06137000  0.15033000  1.0
  O  O9  1  0.35464000  0.99984000  0.26596000  1.0
  O  O10  1  0.37022000  0.80052000  0.27407000  1.0
  O  O11  1  0.11962000  0.55384000  0.53574000  1.0
  O  O12  1  0.06050000  0.62721000  0.65015000  1.0
  O  O13  1  0.00039000  0.64545000  0.23406000  1.0
  O  O14  1  0.19975000  0.62982000  0.22606000  1.0
  O  O15  1  0.44614000  0.88056000  0.96423000  1.0
  O  O16  1  0.37277000  0.93863000  0.84967000  1.0
