# generated using pymatgen
data_Cr6H17C45O32F
_symmetry_space_group_name_H-M   'P 1'
_cell_length_a   10.67121000
_cell_length_b   10.70091000
_cell_length_c   17.10839000
_cell_angle_alpha   80.57786000
_cell_angle_beta   80.66975000
_cell_angle_gamma   61.43303000
_symmetry_Int_Tables_number   1
_chemical_formula_structural   Cr6H17C45O32F
_chemical_formula_sum   'Cr6 H17 C45 O32 F1'
_cell_volume   1684.70563438
_cell_formula_units_Z   1
loop_
 _symmetry_equiv_pos_site_id
 _symmetry_equiv_pos_as_xyz
  1  'x, y, z'
loop_
 _atom_site_type_symbol
 _atom_site_label
 _atom_site_symmetry_multiplicity
 _atom_site_fract_x
 _atom_site_fract_y
 _atom_site_fract_z
 _atom_site_occupancy
  Cr  Cr0  1  0.60844000  0.61092000  0.48032000  1
  Cr  Cr1  1  0.28864000  0.59991000  0.50924000  1
  Cr  Cr2  1  0.60294000  0.28920000  0.51049000  1
  Cr  Cr3  1  0.05253000  0.05244000  0.03579000  1
  Cr  Cr4  1  0.05997000  0.37320000  0.00708000  1
  Cr  Cr5  1  0.37332000  0.06156000  0.00463000  1
  H  H6  1  0.44678000  0.08800000  0.36494000  1
  H  H7  1  0.90952000  0.59660000  0.79594000  1
  H  H8  1  0.96457000  0.45046000  0.64562000  1
  H  H9  1  0.50326000  0.87810000  0.65745000  1
  H  H10  1  0.49337000  0.90115000  0.79945000  1
  H  H11  1  0.23592000  0.63127000  0.86262000  1
  H  H12  1  0.23744000  0.61740000  0.72549000  1
  H  H13  1  0.04872000  0.76287000  0.72369000  1
  H  H14  1  0.41768000  0.04894000  0.23316000  1
  H  H15  1  0.01210000  0.52449000  0.21085000  1
  H  H16  1  0.15048000  0.66575000  0.28637000  1
  H  H17  1  0.66953000  0.22565000  0.73052000  1
  H  H18  1  0.74329000  0.18097000  0.86623000  1
  H  H19  1  0.03207000  0.40669000  0.77652000  1
  H  H20  1  0.83071000  0.81641000  0.55324000  1
  H  H21  1  0.88256000  0.76206000  0.97296000  1
  H  H22  1  0.95451000  0.49570000  0.46101000  1
  C  C23  1  0.36150000  0.77002000  0.37231000  1
  C  C24  1  0.38641000  0.17950000  0.32440000  1
  C  C25  1  0.37063000  0.15710000  0.24927000  1
  C  C26  1  0.10475000  0.54537000  0.21076000  1
  C  C27  1  0.12692000  0.57406000  0.29082000  1
  C  C28  1  0.32706000  0.31964000  0.34591000  1
  C  C29  1  0.82349000  0.34300000  0.29405000  1
  C  C30  1  0.85156000  0.31502000  0.22644000  1
  C  C31  1  0.34547000  0.81146000  0.29007000  1
  C  C32  1  0.32094000  0.83956000  0.22179000  1
  C  C33  1  0.33607000  0.33461000  0.72218000  1
  C  C34  1  0.36979000  0.34566000  0.41453000  1
  C  C35  1  0.32323000  0.32532000  0.79282000  1
  C  C36  1  0.80611000  0.34911000  0.84785000  1
  C  C37  1  0.80457000  0.46514000  0.79574000  1
  C  C38  1  0.76408000  0.49084000  0.72035000  1
  C  C39  1  0.70686000  0.29348000  0.74866000  1
  C  C40  1  0.74803000  0.26819000  0.82602000  1
  C  C41  1  0.92557000  0.50115000  0.76944000  1
  C  C42  1  0.88233000  0.52882000  0.68600000  1
  C  C43  1  0.72589000  0.39824000  0.69361000  1
  C  C44  1  0.31402000  0.85346000  0.83488000  1
  C  C45  1  0.77698000  0.38103000  0.37310000  1
  C  C46  1  0.20647000  0.84053000  0.80637000  1
  C  C47  1  0.20921000  0.83259000  0.72731000  1
  C  C48  1  0.41982000  0.86835000  0.69899000  1
  C  C49  1  0.41633000  0.87706000  0.77999000  1
  C  C50  1  0.15493000  0.73115000  0.83230000  1
  C  C51  1  0.15603000  0.72265000  0.74473000  1
  C  C52  1  0.32149000  0.83606000  0.67331000  1
  C  C53  1  0.89249000  0.29770000  0.14436000  1
  C  C54  1  0.28357000  0.25100000  0.11701000  1
  C  C55  1  0.28441000  0.88560000  0.14234000  1
  C  C56  1  0.35074000  0.77411000  0.59983000  1
  C  C57  1  0.88410000  0.31058000  0.91727000  1
  C  C58  1  0.31259000  0.29861000  0.87593000  1
  C  C59  1  0.28512000  0.89330000  0.91457000  1
  C  C60  1  0.36550000  0.34568000  0.63923000  1
  C  C61  1  0.70348000  0.41580000  0.61029000  1
  C  C62  1  0.29406000  0.27430000  0.19561000  1
  C  C63  1  0.24443000  0.41206000  0.21621000  1
  C  C64  1  0.26183000  0.43425000  0.28920000  1
  C  C65  1  0.83041000  0.68197000  0.65067000  1
  C  C66  1  0.00775000  0.78907000  0.87702000  1
  C  C67  1  0.01089000  0.58177000  0.35608000  1
  O  O68  1  0.75402000  0.50241000  0.39007000  1
  O  O69  1  0.29508000  0.46638000  0.60211000  1
  O  O70  1  0.48528000  0.25338000  0.61156000  1
  O  O71  1  0.72055000  0.30378000  0.57999000  1
  O  O72  1  0.50001000  0.50001000  0.50002000  1
  O  O73  1  0.16332000  0.90710000  0.12555000  1
  O  O74  1  0.93465000  0.17792000  0.11716000  1
  O  O75  1  0.91552000  0.39586000  0.10633000  1
  O  O76  1  0.19176000  0.36189000  0.07677000  1
  O  O77  1  0.40618000  0.17307000  0.07934000  1
  O  O78  1  0.35862000  0.93713000  0.09805000  1
  O  O79  1  0.48142000  0.72861000  0.39937000  1
  O  O80  1  0.16391000  0.91454000  0.94979000  1
  O  O81  1  0.93520000  0.18483000  0.95423000  1
  O  O82  1  0.91612000  0.40331000  0.93057000  1
  O  O83  1  0.19231000  0.36880000  0.91383000  1
  O  O84  1  0.40677000  0.18052000  0.90358000  1
  O  O85  1  0.35917000  0.94404000  0.93512000  1
  O  O86  1  0.16194000  0.16240000  0.01584000  1
  O  O87  1  0.26381000  0.74545000  0.41041000  1
  O  O88  1  0.30082000  0.46880000  0.43911000  1
  O  O89  1  0.49148000  0.25598000  0.43573000  1
  O  O90  1  0.72629000  0.30620000  0.41699000  1
  O  O91  1  0.74783000  0.49981000  0.56591000  1
  O  O92  1  0.47568000  0.72620000  0.56237000  1
  O  O93  1  0.25762000  0.74284000  0.58625000  1
  O  O94  1  0.75611000  0.78060000  0.69166000  1
  O  O95  1  0.87086000  0.71024000  0.57060000  1
  O  O96  1  0.90885000  0.90016000  0.85156000  1
  O  O97  1  0.98524000  0.71396000  0.94808000  1
  O  O98  1  0.89387000  0.68794000  0.35574000  1
  O  O99  1  0.03718000  0.47178000  0.41786000  1
  F  F100  1  0.11392000  0.64300000  0.14919000  1
