# generated using pymatgen
data_Ga3H14(C8O5)3
_symmetry_space_group_name_H-M   'P 1'
_cell_length_a   6.99335000
_cell_length_b   21.33976000
_cell_length_c   21.34335839
_cell_angle_alpha   60.24105166
_cell_angle_beta   90.02550064
_cell_angle_gamma   90.02148000
_symmetry_Int_Tables_number   1
_chemical_formula_structural   Ga3H14(C8O5)3
_chemical_formula_sum   'Ga6 H28 C48 O30'
_cell_volume   2765.14504457
_cell_formula_units_Z   2
loop_
 _symmetry_equiv_pos_site_id
 _symmetry_equiv_pos_as_xyz
  1  'x, y, z'
loop_
 _atom_site_type_symbol
 _atom_site_label
 _atom_site_symmetry_multiplicity
 _atom_site_fract_x
 _atom_site_fract_y
 _atom_site_fract_z
 _atom_site_occupancy
  Ga  Ga0  1  0.00000000  0.00000000  0.50000000  1
  Ga  Ga1  1  0.50000000  1.00000000  0.50000000  1
  Ga  Ga2  1  0.50000000  0.50000000  0.00000000  1
  Ga  Ga3  1  0.00000000  0.50000000  0.00000000  1
  Ga  Ga4  1  0.00001000  0.99997000  0.00003000  1
  Ga  Ga5  1  0.50000000  0.00001000  0.99999000  1
  H  H6  1  0.05617000  0.79482000  0.67707000  1
  H  H7  1  0.05578000  0.97433000  0.32155000  1
  H  H8  1  0.05611000  0.96965000  0.20579000  1
  H  H9  1  0.75081000  0.08561000  0.50182000  1
  H  H10  1  0.55607000  0.20505000  0.32301000  1
  H  H11  1  0.55594000  0.02563000  0.67857000  1
  H  H12  1  0.55626000  0.03034000  0.79434000  1
  H  H13  1  0.24919000  0.91440000  0.49817000  1
  H  H14  1  0.44364000  0.67783000  0.79475000  1
  H  H15  1  0.44398000  0.32122000  0.97447000  1
  H  H16  1  0.44411000  0.20580000  0.96913000  1
  H  H17  1  0.75087000  0.50141000  0.08576000  1
  H  H18  1  0.94394000  0.32224000  0.20516000  1
  H  H19  1  0.94389000  0.67863000  0.02558000  1
  H  H20  1  0.94412000  0.79409000  0.03088000  1
  H  H21  1  0.24914000  0.49859000  0.91424000  1
  H  H22  1  0.94384000  0.20518000  0.32292000  1
  H  H23  1  0.94422000  0.02567000  0.67845000  1
  H  H24  1  0.94390000  0.03035000  0.79421000  1
  H  H25  1  0.44394000  0.79495000  0.67698000  1
  H  H26  1  0.44406000  0.97436000  0.32143000  1
  H  H27  1  0.44374000  0.96965000  0.20566000  1
  H  H28  1  0.55637000  0.32218000  0.20524000  1
  H  H29  1  0.55603000  0.67878000  0.02552000  1
  H  H30  1  0.55590000  0.79419000  0.03087000  1
  H  H31  1  0.05607000  0.67777000  0.79483000  1
  H  H32  1  0.05612000  0.32137000  0.97442000  1
  H  H33  1  0.05589000  0.20591000  0.96912000  1
  C  C34  1  0.92360000  0.76849000  0.70318000  1
  C  C35  1  0.92360000  0.97244000  0.29603000  1
  C  C36  1  0.92395000  0.96982000  0.23222000  1
  C  C37  1  0.42363000  0.23148000  0.29685000  1
  C  C38  1  0.42386000  0.02754000  0.70408000  1
  C  C39  1  0.42410000  0.03017000  0.76788000  1
  C  C40  1  0.57628000  0.70374000  0.76832000  1
  C  C41  1  0.57628000  0.29598000  0.97228000  1
  C  C42  1  0.57609000  0.23228000  0.96944000  1
  C  C43  1  0.07650000  0.29626000  0.23164000  1
  C  C44  1  0.07628000  0.70388000  0.02777000  1
  C  C45  1  0.07606000  0.76761000  0.03058000  1
  C  C46  1  0.07641000  0.23151000  0.29682000  1
  C  C47  1  0.07640000  0.02756000  0.70397000  1
  C  C48  1  0.07605000  0.03018000  0.76778000  1
  C  C49  1  0.57638000  0.76853000  0.70314000  1
  C  C50  1  0.57614000  0.97245000  0.29592000  1
  C  C51  1  0.57590000  0.96983000  0.23212000  1
  C  C52  1  0.42372000  0.29627000  0.23167000  1
  C  C53  1  0.42372000  0.70402000  0.02772000  1
  C  C54  1  0.42392000  0.76773000  0.03055000  1
  C  C55  1  0.92350000  0.70373000  0.76836000  1
  C  C56  1  0.92373000  0.29612000  0.97223000  1
  C  C57  1  0.92395000  0.23238000  0.96942000  1
  C  C58  1  0.75006000  0.87389000  0.60309000  1
  C  C59  1  0.75002000  0.80168000  0.67068000  1
  C  C60  1  0.74962000  0.97748000  0.39635000  1
  C  C61  1  0.74981000  0.97374000  0.32814000  1
  C  C62  1  0.74995000  0.96816000  0.20036000  1
  C  C63  1  0.74987000  0.96919000  0.12941000  1
  C  C64  1  0.24995000  0.12611000  0.39691000  1
  C  C65  1  0.24999000  0.19832000  0.32931000  1
  C  C66  1  0.25039000  0.02252000  0.60365000  1
  C  C67  1  0.25019000  0.02626000  0.67186000  1
  C  C68  1  0.25005000  0.03184000  0.79964000  1
  C  C69  1  0.25014000  0.03081000  0.87059000  1
  C  C70  1  0.75026000  0.60405000  0.87415000  1
  C  C71  1  0.74986000  0.67148000  0.80175000  1
  C  C72  1  0.74937000  0.39684000  0.97666000  1
  C  C73  1  0.74994000  0.32835000  0.97337000  1
  C  C74  1  0.75005000  0.20067000  0.96749000  1
  C  C75  1  0.75018000  0.13006000  0.96780000  1
  C  C76  1  0.24975000  0.39595000  0.12584000  1
  C  C77  1  0.25014000  0.32852000  0.19825000  1
  C  C78  1  0.25064000  0.60317000  0.02333000  1
  C  C79  1  0.25007000  0.67166000  0.02662000  1
  C  C80  1  0.24996000  0.79933000  0.03251000  1
  C  C81  1  0.24982000  0.86993000  0.03220000  1
  O  O82  1  0.91406000  0.90114000  0.57785000  1
  O  O83  1  0.91381000  0.97837000  0.42224000  1
  O  O84  1  0.91391000  0.97093000  0.10258000  1
  O  O85  1  0.41389000  0.09893000  0.42228000  1
  O  O86  1  0.41453000  0.02156000  0.57781000  1
  O  O87  1  0.41424000  0.02932000  0.89728000  1
  O  O88  1  0.58673000  0.57778000  0.90102000  1
  O  O89  1  0.58491000  0.42212000  0.97837000  1
  O  O90  1  0.58620000  0.10324000  0.96940000  1
  O  O91  1  0.08544000  0.42021000  0.09828000  1
  O  O92  1  0.08681000  0.57643000  0.02356000  1
  O  O93  1  0.08576000  0.89634000  0.03125000  1
  O  O94  1  0.08594000  0.09887000  0.42214000  1
  O  O95  1  0.08619000  0.02164000  0.57775000  1
  O  O96  1  0.08611000  0.02907000  0.89743000  1
  O  O97  1  0.58611000  0.90107000  0.57772000  1
  O  O98  1  0.58547000  0.97844000  0.42219000  1
  O  O99  1  0.58578000  0.97069000  0.10271000  1
  O  O100  1  0.41328000  0.42223000  0.09897000  1
  O  O101  1  0.41510000  0.57788000  0.02163000  1
  O  O102  1  0.41379000  0.89676000  0.03059000  1
  O  O103  1  0.91456000  0.57979000  0.90172000  1
  O  O104  1  0.91319000  0.42357000  0.97644000  1
  O  O105  1  0.91423000  0.10364000  0.96876000  1
  O  O106  1  0.75066000  0.04165000  0.49886000  1
  O  O107  1  0.24934000  0.95835000  0.50113000  1
  O  O108  1  0.75075000  0.49845000  0.04181000  1
  O  O109  1  0.24925000  0.50155000  0.95819000  1
  O  O110  1  0.75055000  0.97838000  0.98003000  1
  O  O111  1  0.24947000  0.02161000  0.01997000  1
