# generated using pymatgen
data_Cu3P2H8(C3O5)2
_symmetry_space_group_name_H-M   'P 1'
_cell_length_a   4.38124000
_cell_length_b   13.96603000
_cell_length_c   15.53750000
_cell_angle_alpha   89.99515000
_cell_angle_beta   94.49357000
_cell_angle_gamma   89.99015000
_symmetry_Int_Tables_number   1
_chemical_formula_structural   Cu3P2H8(C3O5)2
_chemical_formula_sum   'Cu6 P4 H16 C12 O20'
_cell_volume   947.79437766
_cell_formula_units_Z   2
loop_
 _symmetry_equiv_pos_site_id
 _symmetry_equiv_pos_as_xyz
  1  'x, y, z'
loop_
 _atom_site_type_symbol
 _atom_site_label
 _atom_site_symmetry_multiplicity
 _atom_site_fract_x
 _atom_site_fract_y
 _atom_site_fract_z
 _atom_site_occupancy
  Cu  Cu1  1  0.51642000  0.10728000  0.13486000  1.0
  Cu  Cu2  1  0.98379000  0.60715000  0.36507000  1.0
  Cu  Cu3  1  0.48359000  0.89272000  0.86514000  1.0
  Cu  Cu4  1  0.01622000  0.39285000  0.63493000  1.0
  Cu  Cu5  1  0.00001000  0.00000000  0.99999000  1.0
  Cu  Cu6  1  0.50001000  0.50000000  0.49999000  1.0
  P  P1  1  0.56782000  0.89644000  0.07416000  1.0
  P  P2  1  0.93222000  0.39635000  0.42584000  1.0
  P  P3  1  0.43221000  0.10356000  0.92584000  1.0
  P  P4  1  0.06780000  0.60365000  0.57415000  1.0
  H  H1  1  0.65273000  0.72777000  0.09847000  1.0
  H  H2  1  0.90329000  0.79691000  0.17132000  1.0
  H  H3  1  0.19700000  0.78435000  0.17296000  1.0
  H  H4  1  0.43504000  0.85512000  0.24403000  1.0
  H  H5  1  0.84718000  0.22753000  0.40155000  1.0
  H  H6  1  0.59678000  0.29661000  0.32868000  1.0
  H  H7  1  0.30312000  0.28431000  0.32719000  1.0
  H  H8  1  0.06453000  0.35504000  0.25602000  1.0
  H  H9  1  0.34728000  0.27223000  0.90152000  1.0
  H  H10  1  0.09672000  0.20309000  0.82868000  1.0
  H  H11  1  0.80301000  0.21565000  0.82704000  1.0
  H  H12  1  0.56497000  0.14488000  0.75597000  1.0
  H  H13  1  0.15282000  0.77247000  0.59845000  1.0
  H  H14  1  0.40323000  0.70339000  0.67132000  1.0
  H  H15  1  0.69689000  0.71569000  0.67281000  1.0
  H  H16  1  0.93547000  0.64495000  0.74398000  1.0
  C  C1  1  0.66045000  0.79157000  0.13993000  1.0
  C  C2  1  0.43719000  0.78830000  0.20646000  1.0
  C  C3  1  0.46671000  0.70690000  0.27124000  1.0
  C  C4  1  0.83964000  0.29137000  0.36011000  1.0
  C  C5  1  0.06298000  0.28819000  0.29360000  1.0
  C  C6  1  0.03390000  0.20677000  0.22879000  1.0
  C  C7  1  0.33957000  0.20843000  0.86006000  1.0
  C  C8  1  0.56282000  0.21170000  0.79354000  1.0
  C  C9  1  0.53329000  0.29310000  0.72876000  1.0
  C  C10  1  0.16037000  0.70863000  0.63989000  1.0
  C  C11  1  0.93703000  0.71181000  0.70640000  1.0
  C  C12  1  0.96610000  0.79322000  0.77121000  1.0
  O  O1  1  0.21875000  0.89908000  0.06604000  1.0
  O  O2  1  0.30566000  0.11037000  0.01919000  1.0
  O  O3  1  0.71780000  0.98623000  0.12051000  1.0
  O  O4  1  0.69079000  0.64865000  0.26670000  1.0
  O  O5  1  0.26196000  0.70791000  0.32547000  1.0
  O  O6  1  0.28128000  0.39895000  0.43404000  1.0
  O  O7  1  0.19437000  0.61017000  0.48075000  1.0
  O  O8  1  0.78235000  0.48611000  0.37937000  1.0
  O  O9  1  0.81056000  0.14836000  0.23328000  1.0
  O  O10  1  0.23855000  0.20796000  0.17454000  1.0
  O  O11  1  0.78127000  0.10092000  0.93395000  1.0
  O  O12  1  0.69435000  0.88962000  0.98080000  1.0
  O  O13  1  0.28224000  0.01377000  0.87948000  1.0
  O  O14  1  0.30921000  0.35135000  0.73330000  1.0
  O  O15  1  0.73804000  0.29209000  0.67453000  1.0
  O  O16  1  0.71874000  0.60105000  0.56595000  1.0
  O  O17  1  0.80565000  0.38983000  0.51924000  1.0
  O  O18  1  0.21769000  0.51389000  0.62062000  1.0
  O  O19  1  0.18944000  0.85164000  0.76672000  1.0
  O  O20  1  0.76146000  0.79204000  0.82546000  1.0
