# generated using pymatgen
data_Cd3H24C36(NO7)2
_symmetry_space_group_name_H-M   'P 1'
_cell_length_a   12.83056000
_cell_length_b   13.69944000
_cell_length_c   16.49012000
_cell_angle_alpha   80.46314000
_cell_angle_beta   77.98481000
_cell_angle_gamma   80.87800000
_symmetry_Int_Tables_number   1
_chemical_formula_structural   Cd3H24C36(NO7)2
_chemical_formula_sum   'Cd6 H48 C72 N4 O28'
_cell_volume   2772.59626696
_cell_formula_units_Z   2
loop_
 _symmetry_equiv_pos_site_id
 _symmetry_equiv_pos_as_xyz
  1  'x, y, z'
loop_
 _atom_site_type_symbol
 _atom_site_label
 _atom_site_symmetry_multiplicity
 _atom_site_fract_x
 _atom_site_fract_y
 _atom_site_fract_z
 _atom_site_occupancy
  Cd  Cd0  1  0.47288000  0.53001000  0.73415000  1
  Cd  Cd1  1  0.72512000  0.24399000  0.23895000  1
  Cd  Cd2  1  0.71095000  0.30084000  0.75548000  1
  Cd  Cd3  1  0.52712000  0.47000000  0.26584000  1
  Cd  Cd4  1  0.27488000  0.75602000  0.76105000  1
  Cd  Cd5  1  0.28905000  0.69917000  0.24452000  1
  H  H6  1  0.78261000  0.67804000  0.65358000  1
  H  H7  1  0.95284000  0.75005000  0.65346000  1
  H  H8  1  0.99071000  0.55823000  0.88061000  1
  H  H9  1  0.71969000  0.55307000  0.97806000  1
  H  H10  1  0.70495000  0.24036000  0.06116000  1
  H  H11  1  0.83581000  0.19974000  0.93322000  1
  H  H12  1  0.53292000  0.71577000  0.45258000  1
  H  H13  1  0.14789000  0.84149000  0.45298000  1
  H  H14  1  0.20338000  0.73174000  0.57799000  1
  H  H15  1  0.29401000  0.00771000  0.42349000  1
  H  H16  1  0.33394000  0.10794000  0.34418000  1
  H  H17  1  0.19586000  0.10696000  0.39226000  1
  H  H18  1  0.12944000  0.09678000  0.25362000  1
  H  H19  1  0.26080000  0.13115000  0.21369000  1
  H  H20  1  0.22332000  0.02303000  0.18388000  1
  H  H21  1  0.67978000  0.76187000  0.14385000  1
  H  H22  1  0.72742000  0.93730000  0.12800000  1
  H  H23  1  0.49850000  0.98899000  0.35035000  1
  H  H24  1  0.06480000  0.31693000  0.66970000  1
  H  H25  1  0.17410000  0.34788000  0.70960000  1
  H  H26  1  0.13966000  0.22389000  0.73211000  1
  H  H27  1  0.14003000  0.28963000  0.88142000  1
  H  H28  1  0.12671000  0.41862000  0.83934000  1
  H  H29  1  0.02178000  0.36965000  0.91814000  1
  H  H30  1  0.21739000  0.32197000  0.34642000  1
  H  H31  1  0.04716000  0.24996000  0.34654000  1
  H  H32  1  0.00929000  0.44178000  0.11939000  1
  H  H33  1  0.28031000  0.44694000  0.02194000  1
  H  H34  1  0.29504000  0.75965000  0.93884000  1
  H  H35  1  0.16419000  0.80026000  0.06678000  1
  H  H36  1  0.46708000  0.28423000  0.54741000  1
  H  H37  1  0.85211000  0.15852000  0.54701000  1
  H  H38  1  0.79662000  0.26826000  0.42200000  1
  H  H39  1  0.70599000  0.99230000  0.57651000  1
  H  H40  1  0.66606000  0.89207000  0.65581000  1
  H  H41  1  0.80413000  0.89305000  0.60774000  1
  H  H42  1  0.87056000  0.90323000  0.74638000  1
  H  H43  1  0.73919000  0.86885000  0.78631000  1
  H  H44  1  0.77668000  0.97698000  0.81611000  1
  H  H45  1  0.32022000  0.23813000  0.85615000  1
  H  H46  1  0.27258000  0.06270000  0.87200000  1
  H  H47  1  0.50150000  0.01102000  0.64964000  1
  H  H48  1  0.93520000  0.68308000  0.33030000  1
  H  H49  1  0.82590000  0.65213000  0.29039000  1
  H  H50  1  0.86034000  0.77612000  0.26789000  1
  H  H51  1  0.85997000  0.71038000  0.11858000  1
  H  H52  1  0.87329000  0.58139000  0.16066000  1
  H  H53  1  0.97822000  0.63035000  0.08186000  1
  C  C54  1  0.69444000  0.53615000  0.76029000  1
  C  C55  1  0.79617000  0.57420000  0.76420000  1
  C  C56  1  0.83062000  0.65155000  0.70186000  1
  C  C57  1  0.92292000  0.69213000  0.70236000  1
  C  C58  1  0.97999000  0.65840000  0.76759000  1
  C  C59  1  0.94516000  0.58219000  0.83052000  1
  C  C60  1  0.85509000  0.53726000  0.82884000  1
  C  C61  1  0.07951000  0.70206000  0.76837000  1
  C  C62  1  0.82028000  0.45457000  0.89543000  1
  C  C63  1  0.74759000  0.47605000  0.96788000  1
  C  C64  1  0.70674000  0.39985000  0.02805000  1
  C  C65  1  0.73710000  0.30001000  0.01507000  1
  C  C66  1  0.81058000  0.27721000  0.94341000  1
  C  C67  1  0.85371000  0.35365000  0.88459000  1
  C  C68  1  0.63286000  0.42759000  0.10623000  1
  C  C69  1  0.92716000  0.32572000  0.80683000  1
  C  C70  1  0.40700000  0.64709000  0.59406000  1
  C  C71  1  0.37156000  0.71640000  0.52165000  1
  C  C72  1  0.44909000  0.74505000  0.45207000  1
  C  C73  1  0.42028000  0.81043000  0.38340000  1
  C  C74  1  0.31050000  0.84421000  0.38408000  1
  C  C75  1  0.23234000  0.81453000  0.45334000  1
  C  C76  1  0.26284000  0.75219000  0.52266000  1
  C  C77  1  0.27504000  0.90601000  0.30876000  1
  C  C78  1  0.27076000  0.05982000  0.37057000  1
  C  C79  1  0.21448000  0.06785000  0.23445000  1
  C  C80  1  0.54379000  0.67285000  0.26651000  1
  C  C81  1  0.56041000  0.77972000  0.25445000  1
  C  C82  1  0.63958000  0.81337000  0.18765000  1
  C  C83  1  0.66609000  0.90957000  0.17897000  1
  C  C84  1  0.61595000  0.97205000  0.23896000  1
  C  C85  1  0.53466000  0.93956000  0.30402000  1
  C  C86  1  0.50448000  0.84413000  0.31184000  1
  C  C87  1  0.65333000  0.07085000  0.23638000  1
  C  C88  1  0.10726000  0.30324000  0.72228000  1
  C  C89  1  0.08281000  0.35399000  0.86327000  1
  C  C90  1  0.30555000  0.46386000  0.23971000  1
  C  C91  1  0.20383000  0.42581000  0.23580000  1
  C  C92  1  0.16938000  0.34846000  0.29814000  1
  C  C93  1  0.07708000  0.30788000  0.29763000  1
  C  C94  1  0.02001000  0.34160000  0.23241000  1
  C  C95  1  0.05484000  0.41781000  0.16948000  1
  C  C96  1  0.14491000  0.46275000  0.17116000  1
  C  C97  1  0.92049000  0.29795000  0.23162000  1
  C  C98  1  0.17972000  0.54543000  0.10456000  1
  C  C99  1  0.25241000  0.52396000  0.03212000  1
  C  C100  1  0.29326000  0.60016000  0.97195000  1
  C  C101  1  0.26289000  0.69999000  0.98493000  1
  C  C102  1  0.18942000  0.72279000  0.05659000  1
  C  C103  1  0.14628000  0.64636000  0.11541000  1
  C  C104  1  0.36714000  0.57242000  0.89377000  1
  C  C105  1  0.07284000  0.67429000  0.19317000  1
  C  C106  1  0.59300000  0.35291000  0.40594000  1
  C  C107  1  0.62843000  0.28361000  0.47835000  1
  C  C108  1  0.55091000  0.25496000  0.54793000  1
  C  C109  1  0.57972000  0.18958000  0.61660000  1
  C  C110  1  0.68950000  0.15580000  0.61592000  1
  C  C111  1  0.76766000  0.18548000  0.54666000  1
  C  C112  1  0.73715000  0.24782000  0.47734000  1
  C  C113  1  0.72496000  0.09399000  0.69124000  1
  C  C114  1  0.72924000  0.94018000  0.62943000  1
  C  C115  1  0.78551000  0.93216000  0.76555000  1
  C  C116  1  0.45621000  0.32715000  0.73349000  1
  C  C117  1  0.43959000  0.22029000  0.74555000  1
  C  C118  1  0.36042000  0.18664000  0.81235000  1
  C  C119  1  0.33391000  0.09044000  0.82102000  1
  C  C120  1  0.38405000  0.02796000  0.76104000  1
  C  C121  1  0.46533000  0.06045000  0.69597000  1
  C  C122  1  0.49552000  0.15587000  0.68816000  1
  C  C123  1  0.34667000  0.92916000  0.76362000  1
  C  C124  1  0.89274000  0.69677000  0.27772000  1
  C  C125  1  0.91718000  0.64602000  0.13672000  1
  N  N126  1  0.03270000  0.33078000  0.79772000  1
  N  N127  1  0.25433000  0.00553000  0.30575000  1
  N  N128  1  0.96730000  0.66923000  0.20228000  1
  N  N129  1  0.74567000  0.99448000  0.69424000  1
  O  O130  1  0.89015000  0.29540000  0.75042000  1
  O  O131  1  0.67693000  0.44845000  0.79747000  1
  O  O132  1  0.62897000  0.59515000  0.72185000  1
  O  O133  1  0.61411000  0.12022000  0.29759000  1
  O  O134  1  0.72479000  0.10021000  0.17472000  1
  O  O135  1  0.49748000  0.59503000  0.58347000  1
  O  O136  1  0.34182000  0.64255000  0.66578000  1
  O  O137  1  0.59809000  0.51774000  0.11255000  1
  O  O138  1  0.60825000  0.35628000  0.16651000  1
  O  O139  1  0.10814000  0.77191000  0.71025000  1
  O  O140  1  0.13270000  0.66602000  0.82631000  1
  O  O141  1  0.44754000  0.64703000  0.28175000  1
  O  O142  1  0.62508000  0.60816000  0.26254000  1
  O  O143  1  0.26164000  0.86412000  0.24868000  1
  O  O144  1  0.10985000  0.70460000  0.24958000  1
  O  O145  1  0.32307000  0.55156000  0.20253000  1
  O  O146  1  0.37102000  0.40485000  0.27815000  1
  O  O147  1  0.38589000  0.87978000  0.70241000  1
  O  O148  1  0.27521000  0.89979000  0.82528000  1
  O  O149  1  0.50252000  0.40497000  0.41653000  1
  O  O150  1  0.65818000  0.35745000  0.33421000  1
  O  O151  1  0.40190000  0.48226000  0.88745000  1
  O  O152  1  0.39174000  0.64373000  0.83349000  1
  O  O153  1  0.89186000  0.22810000  0.28975000  1
  O  O154  1  0.86730000  0.33399000  0.17369000  1
  O  O155  1  0.55246000  0.35297000  0.71825000  1
  O  O156  1  0.37492000  0.39185000  0.73746000  1
  O  O157  1  0.73836000  0.13588000  0.75132000  1
