# generated using pymatgen
data_H20C37N8
_symmetry_space_group_name_H-M   'P 1'
_cell_length_a   37.97270000
_cell_length_b   37.97270000
_cell_length_c   45.16210000
_cell_angle_alpha   90.00140000
_cell_angle_beta   89.99860000
_cell_angle_gamma   90.00000000
_symmetry_Int_Tables_number   1
_chemical_formula_structural   H20C37N8
_chemical_formula_sum   'H160 C296 N64'
_cell_volume   65120.40369490
_cell_formula_units_Z   8
loop_
 _symmetry_equiv_pos_site_id
 _symmetry_equiv_pos_as_xyz
  1  'x, y, z'
loop_
 _atom_site_type_symbol
 _atom_site_label
 _atom_site_symmetry_multiplicity
 _atom_site_fract_x
 _atom_site_fract_y
 _atom_site_fract_z
 _atom_site_occupancy
  H  25  1  0.81426300  0.14896600  0.73946500  1
  H  26  1  0.82866900  0.08917300  0.74737500  1
  H  27  1  0.83910800  0.02925600  0.74903300  1
  H  28  1  0.84180500  0.96705000  0.74752700  1
  H  29  1  0.76821500  0.96534200  0.67705900  1
  H  30  1  0.74945400  0.12046400  0.66706000  1
  H  31  1  0.70747700  0.05186400  0.72436900  1
  H  32  1  0.62168500  0.01850200  0.67143500  1
  H  33  1  0.65957900  0.01168500  0.63032500  1
  H  34  1  0.81475900  0.05448400  0.62784500  1
  H  35  1  0.70142400  0.01081000  0.59364200  1
  H  36  1  0.74752300  0.01883500  0.55929500  1
  H  66  1  0.26411900  0.93812000  0.73866400  1
  H  67  1  0.24728300  0.99772800  0.74258700  1
  H  68  1  0.23667000  0.05763200  0.74189000  1
  H  69  1  0.23731500  0.11986800  0.74197600  1
  H  70  1  0.32383200  0.12013000  0.68277400  1
  H  71  1  0.34094400  0.96501300  0.67467000  1
  H  72  1  0.37106900  0.03751200  0.73404900  1
  H  73  1  0.46802700  0.04812600  0.68866800  1
  H  74  1  0.43748500  0.05556900  0.64339600  1
  H  75  1  0.27861100  0.03673200  0.62786300  1
  H  76  1  0.39996200  0.06553300  0.60316300  1
  H  77  1  0.35718300  0.06287000  0.56511100  1
  H  107  1  0.14919000  0.27395100  0.23958900  1
  H  108  1  0.08936800  0.25987300  0.24768200  1
  H  109  1  0.02947800  0.24944500  0.24935600  1
  H  110  1  0.96728500  0.24653700  0.24770400  1
  H  111  1  0.96551500  0.32077500  0.17773600  1
  H  112  1  0.12067200  0.33937000  0.16755900  1
  H  113  1  0.05405100  0.38224700  0.22463100  1
  H  114  1  0.01622000  0.46713500  0.17277400  1
  H  115  1  0.00787100  0.42893600  0.13211600  1
  H  116  1  0.05592400  0.27545700  0.12806400  1
  H  117  1  0.00686300  0.38727600  0.09543000  1
  H  118  1  0.01589700  0.34187900  0.06064000  1
  H  148  1  0.93820900  0.82433900  0.23864800  1
  H  149  1  0.99779700  0.84132000  0.24254900  1
  H  150  1  0.05777200  0.85186800  0.24192500  1
  H  151  1  0.12000900  0.85114600  0.24198900  1
  H  152  1  0.12014200  0.76541300  0.18199600  1
  H  153  1  0.96510600  0.74832100  0.17397400  1
  H  154  1  0.03881400  0.71854700  0.23318700  1
  H  155  1  0.04694200  0.62149700  0.18799700  1
  H  156  1  0.05310000  0.65172800  0.14231500  1
  H  157  1  0.03747400  0.81142500  0.12762800  1
  H  158  1  0.06211000  0.68958300  0.10156400  1
  H  159  1  0.05987300  0.73292300  0.06384200  1
  H  189  1  0.83541800  0.96635500  0.22960700  1
  H  190  1  0.83157800  0.02855100  0.22625500  1
  H  191  1  0.82318500  0.08937900  0.22869000  1
  H  192  1  0.81237100  0.14981700  0.23852400  1
  H  193  1  0.75832500  0.12250500  0.31721300  1
  H  194  1  0.77423600  0.96764900  0.30802000  1
  H  195  1  0.70556500  0.04903000  0.26613800  1
  H  196  1  0.62945300  0.02652100  0.33191200  1
  H  197  1  0.67424500  0.02417600  0.36855500  1
  H  198  1  0.83021500  0.05264800  0.34426000  1
  H  199  1  0.72385900  0.02717900  0.40008600  1
  H  200  1  0.77865500  0.03252800  0.42556100  1
  H  230  1  0.23926300  0.12072800  0.23146200  1
  H  231  1  0.24069600  0.05833300  0.23038200  1
  H  232  1  0.25045000  0.99746000  0.23229100  1
  H  233  1  0.26589500  0.93763400  0.24004700  1
  H  234  1  0.33333333  0.96741300  0.31029800  1
  H  235  1  0.31507100  0.12173300  0.30025500  1
  H  236  1  0.37083000  0.04219300  0.25341900  1
  H  237  1  0.46126000  0.04689300  0.30777000  1
  H  238  1  0.42464500  0.05043600  0.35081900  1
  H  239  1  0.26298700  0.04105600  0.34498200  1
  H  240  1  0.37898500  0.05348200  0.38928700  1
  H  241  1  0.32783400  0.05165000  0.42054100  1
  H  271  1  0.12127200  0.83573900  0.72980900  1
  H  272  1  0.05910600  0.83178800  0.72663200  1
  H  273  1  0.99847300  0.82314000  0.72905800  1
  H  274  1  0.93809800  0.81223300  0.73887200  1
  H  275  1  0.96552500  0.75735600  0.81713100  1
  H  276  1  0.12051100  0.77348500  0.80762200  1
  H  277  1  0.03802400  0.70497100  0.76546100  1
  H  278  1  0.06341700  0.62831200  0.83005700  1
  H  279  1  0.06658900  0.67265600  0.86697100  1
  H  280  1  0.03476900  0.82840300  0.84522400  1
  H  281  1  0.06358600  0.72140500  0.89898700  1
  H  282  1  0.05772600  0.77542100  0.92536000  1
  H  312  1  0.96716000  0.23915600  0.73115100  1
  H  313  1  0.02957400  0.24049900  0.72993800  1
  H  314  1  0.09058600  0.25023000  0.73181700  1
  H  315  1  0.15045300  0.26569100  0.73962000  1
  H  316  1  0.12069200  0.33232000  0.81042200  1
  H  317  1  0.96648500  0.31421800  0.80051500  1
  H  318  1  0.04551900  0.37008800  0.75393100  1
  H  319  1  0.04102000  0.46017300  0.80868900  1
  H  320  1  0.03815000  0.42317600  0.85166800  1
  H  321  1  0.04700200  0.26137300  0.84436100  1
  H  322  1  0.03610300  0.37676000  0.89008000  1
  H  323  1  0.03814100  0.32502600  0.92077100  1
  H  334  1  0.90506800  0.85967600  0.78166100  1
  H  335  1  0.88600700  0.90856500  0.75186300  1
  H  338  1  0.85936200  0.92192200  0.70026900  1
  H  340  1  0.86071000  0.77994300  0.78642800  1
  H  346  1  0.19251300  0.22931100  0.78564600  1
  H  347  1  0.21353400  0.17965100  0.75764200  1
  H  350  1  0.23146200  0.17021600  0.69846200  1
  H  352  1  0.22599500  0.31311900  0.78125900  1
  H  358  1  0.85995800  0.18269000  0.28130700  1
  H  359  1  0.90887200  0.20193900  0.25162800  1
  H  362  1  0.92228100  0.22906800  0.20045200  1
  H  364  1  0.78023600  0.22722400  0.28624100  1
  H  370  1  0.22988900  0.89499400  0.28630500  1
  H  371  1  0.18006700  0.87421300  0.25836100  1
  H  374  1  0.17064600  0.85768300  0.19892900  1
  H  376  1  0.31365200  0.86204800  0.28121400  1
  H  382  1  0.18648400  0.23312900  0.19338600  1
  H  383  1  0.20464600  0.18225600  0.22126100  1
  H  386  1  0.22423200  0.16812600  0.27684300  1
  H  388  1  0.22614100  0.31454200  0.19669200  1
  H  394  1  0.89236000  0.85548500  0.19387600  1
  H  395  1  0.87405600  0.90727900  0.22049100  1
  H  398  1  0.86167100  0.92433500  0.27683500  1
  H  400  1  0.86076000  0.77215600  0.20516200  1
  H  406  1  0.23312400  0.89246100  0.69381000  1
  H  407  1  0.18111700  0.87413300  0.72011500  1
  H  410  1  0.16341100  0.86143900  0.77639000  1
  H  412  1  0.31631000  0.86060300  0.70540400  1
  H  418  1  0.85484500  0.18672600  0.69305700  1
  H  419  1  0.90574700  0.20481300  0.72091900  1
  H  422  1  0.91968500  0.22371000  0.77664000  1
  H  424  1  0.77324300  0.22590400  0.69687200  1
  H  430  1  0.58825000  0.03561200  0.77433500  1
  H  431  1  0.52779300  0.02576500  0.78903700  1
  H  434  1  0.46472200  0.03494500  0.77838700  1
  H  436  1  0.60866200  0.07868000  0.70173700  1
  H  442  1  0.03146000  0.50182100  0.27135400  1
  H  443  1  0.02164400  0.56223100  0.28599000  1
  H  446  1  0.03663400  0.62509900  0.27776700  1
  H  448  1  0.07774300  0.48138900  0.19998300  1
  H  454  1  0.58851600  0.03095800  0.22697900  1
  H  455  1  0.52881100  0.02306200  0.20970100  1
  H  458  1  0.46598100  0.03847400  0.21624000  1
  H  460  1  0.60639000  0.07562100  0.29915200  1
  H  466  1  0.05600400  0.58724300  0.72611100  1
  H  467  1  0.06397800  0.52732300  0.70941400  1
  H  470  1  0.04902300  0.46455200  0.71674100  1
  H  472  1  0.01227600  0.60603500  0.79851800  1
  H  478  1  0.86144300  0.02488600  0.52636900  1
  H  479  1  0.88225500  0.01872200  0.47608500  1
  H  482  1  0.88155900  0.05115700  0.42580700  1
  H  484  1  0.77883300  0.07485900  0.54230200  1
  H  490  1  0.23614100  0.05971100  0.52817600  1
  H  491  1  0.21524100  0.06673600  0.47804500  1
  H  494  1  0.22019600  0.04385700  0.42636900  1
  H  496  1  0.32163400  0.01447900  0.54337600  1
  H  502  1  0.03411600  0.22600800  0.02670200  1
  H  503  1  0.02621500  0.20726400  0.97606600  1
  H  506  1  0.04458200  0.21618500  0.92382100  1
  H  508  1  0.07419500  0.31376100  0.04353500  1
  H  514  1  0.06669800  0.85169200  0.02763000  1
  H  515  1  0.07196100  0.87471300  0.97793200  1
  H  518  1  0.03666800  0.87712300  0.92853100  1
  H  520  1  0.01331900  0.77086600  0.04243200  1
  C  1  1  0.76339400  0.03972400  0.64204500  1
  C  2  1  0.73092000  0.02799100  0.63104300  1
  C  3  1  0.70600200  0.02742300  0.65323200  1
  C  4  1  0.72093500  0.03850600  0.67999500  1
  C  5  1  0.69762600  0.04312300  0.70465300  1
  C  6  1  0.66048600  0.03730500  0.70164400  1
  C  7  1  0.64789300  0.02398400  0.67433600  1
  C  8  1  0.67007900  0.01962800  0.65003900  1
  C  9  1  0.72512500  0.01985600  0.60114600  1
  C  10  1  0.75240500  0.02497200  0.58100700  1
  C  11  1  0.78513000  0.03960900  0.58969600  1
  C  12  1  0.79091500  0.04530300  0.62078600  1
  C  13  1  0.77405000  0.07756800  0.68874800  1
  C  14  1  0.79768000  0.06975800  0.71163900  1
  C  15  1  0.80234300  0.03390900  0.71366700  1
  C  16  1  0.78150300  0.01659500  0.69260300  1
  C  17  1  0.82434300  0.01617000  0.73366600  1
  C  18  1  0.82589000  0.97954800  0.73250200  1
  C  19  1  0.80643900  0.96013000  0.71134200  1
  C  20  1  0.78335700  0.97893500  0.69185000  1
  C  21  1  0.76669600  0.11384900  0.68352300  1
  C  22  1  0.78268600  0.14092700  0.70104600  1
  C  23  1  0.80445700  0.13087800  0.72496400  1
  C  24  1  0.81268500  0.09557400  0.73000200  1
  C  37  1  0.76022300  0.04363300  0.67548300  1
  C  42  1  0.32959200  0.04504400  0.64605500  1
  C  43  1  0.36448300  0.05218800  0.63782300  1
  C  44  1  0.38632700  0.05126700  0.66222800  1
  C  45  1  0.36639100  0.04511600  0.68774300  1
  C  46  1  0.38501700  0.04206200  0.71506200  1
  C  47  1  0.42267300  0.04403700  0.71622200  1
  C  48  1  0.44104700  0.04865800  0.68939200  1
  C  49  1  0.42330100  0.05280500  0.66252900  1
  C  50  1  0.37461500  0.05914500  0.60854600  1
  C  51  1  0.34924500  0.05733200  0.58628000  1
  C  52  1  0.31405900  0.04705400  0.59227100  1
  C  53  1  0.30415300  0.04252500  0.62271500  1
  C  54  1  0.31156700  0.00812400  0.69124800  1
  C  55  1  0.28389200  0.01635600  0.71051600  1
  C  56  1  0.27950400  0.05228500  0.71181600  1
  C  57  1  0.30484900  0.06921800  0.69430100  1
  C  58  1  0.25461200  0.07043800  0.72893200  1
  C  59  1  0.25506000  0.10710400  0.72869300  1
  C  60  1  0.27955700  0.12616400  0.71134400  1
  C  61  1  0.30507800  0.10688100  0.69455600  1
  C  62  1  0.32048400  0.97183900  0.68821000  1
  C  63  1  0.30224700  0.94515000  0.70454900  1
  C  64  1  0.27593500  0.95568000  0.72482000  1
  C  65  1  0.26612300  0.99095000  0.72748600  1
  C  78  1  0.32787400  0.04175500  0.67954600  1
  C  83  1  0.03930600  0.32600200  0.14289900  1
  C  84  1  0.02601300  0.35807700  0.13232600  1
  C  85  1  0.02562700  0.38291400  0.15455700  1
  C  86  1  0.03834100  0.36826700  0.18092200  1
  C  87  1  0.04397300  0.39181700  0.20527000  1
  C  88  1  0.03744800  0.42885400  0.20231900  1
  C  89  1  0.02228000  0.44103500  0.17557300  1
  C  90  1  0.01700000  0.41866300  0.15154800  1
  C  91  1  0.01692500  0.36385400  0.10262900  1
  C  92  1  0.02261700  0.33699200  0.08223300  1
  C  93  1  0.03893400  0.30489000  0.09043700  1
  C  94  1  0.04552400  0.29894500  0.12136600  1
  C  95  1  0.07772700  0.31506100  0.18941200  1
  C  96  1  0.06993400  0.29130000  0.21222100  1
  C  97  1  0.03409800  0.28661000  0.21428200  1
  C  98  1  0.01677300  0.30761100  0.19334900  1
  C  99  1  0.01638400  0.26434200  0.23408600  1
  C  100  1  0.97977200  0.26265600  0.23282400  1
  C  101  1  0.96034800  0.28220400  0.21172900  1
  C  102  1  0.97912500  0.30558100  0.19247600  1
  C  103  1  0.11403500  0.32214200  0.18402400  1
  C  104  1  0.14112000  0.30585200  0.20136400  1
  C  105  1  0.13107700  0.28401900  0.22524000  1
  C  106  1  0.09575700  0.27602100  0.23041500  1
  C  119  1  0.04375800  0.32902900  0.17627900  1
  C  124  1  0.04459400  0.75999300  0.14524900  1
  C  125  1  0.05064900  0.72498500  0.13670800  1
  C  126  1  0.04998700  0.70298100  0.16107600  1
  C  127  1  0.04502200  0.72297700  0.18674100  1
  C  128  1  0.04255400  0.70449400  0.21414000  1
  C  129  1  0.04420500  0.66686700  0.21534100  1
  C  130  1  0.04767700  0.64819200  0.18848000  1
  C  131  1  0.05106900  0.66595200  0.16143500  1
  C  132  1  0.05656400  0.71503800  0.10721700  1
  C  133  1  0.05499500  0.74074100  0.08515200  1
  C  134  1  0.04611200  0.77620400  0.09157300  1
  C  135  1  0.04238000  0.78578600  0.12216300  1
  C  136  1  0.00817200  0.77764400  0.19069600  1
  C  137  1  0.01643000  0.80507900  0.21018400  1
  C  138  1  0.05236600  0.80951700  0.21138800  1
  C  139  1  0.06926600  0.78441100  0.19360100  1
  C  140  1  0.07055500  0.83414200  0.22874100  1
  C  141  1  0.10722300  0.83364000  0.22849500  1
  C  142  1  0.12626700  0.80936500  0.21090500  1
  C  143  1  0.10692900  0.78409400  0.19388900  1
  C  144  1  0.97191700  0.76862700  0.18768500  1
  C  145  1  0.94524400  0.78658400  0.20424100  1
  C  146  1  0.95576400  0.81271900  0.22467800  1
  C  147  1  0.99102300  0.82260600  0.22733700  1
  C  160  1  0.04175700  0.76152300  0.17875900  1
  C  165  1  0.77541600  0.04357300  0.34045600  1
  C  166  1  0.74525000  0.03647600  0.35726500  1
  C  167  1  0.71620500  0.03520600  0.33882900  1
  C  168  1  0.72625800  0.04162600  0.30944400  1
  C  169  1  0.69903100  0.04375800  0.28762900  1
  C  170  1  0.66276000  0.03985600  0.29563800  1
  C  171  1  0.65490100  0.03103200  0.32542600  1
  C  172  1  0.68108200  0.02934700  0.34711500  1
  C  173  1  0.74614400  0.03259300  0.38826000  1
  C  174  1  0.77830100  0.03622200  0.40319000  1
  C  175  1  0.80945300  0.04434900  0.38757800  1
  C  176  1  0.80781900  0.04738900  0.35601600  1
  C  177  1  0.78365900  0.01806600  0.28901100  1
  C  178  1  0.80072500  0.03460400  0.26524500  1
  C  179  1  0.79693400  0.07062200  0.26722000  1
  C  180  1  0.77755900  0.07911300  0.29260700  1
  C  181  1  0.80993200  0.09617100  0.24752500  1
  C  182  1  0.80398400  0.13175000  0.25368500  1
  C  183  1  0.78639100  0.14220500  0.27981500  1
  C  184  1  0.77231900  0.11551600  0.29879300  1
  C  185  1  0.78628100  0.98055600  0.29095700  1
  C  186  1  0.80634900  0.96105100  0.26971100  1
  C  187  1  0.82173400  0.97949500  0.24575100  1
  C  188  1  0.81943700  0.01604500  0.24348100  1
  C  201  1  0.76586100  0.04573200  0.30798700  1
  C  206  1  0.31739000  0.04537200  0.33568000  1
  C  207  1  0.35059500  0.04865600  0.34898100  1
  C  208  1  0.37638200  0.04884000  0.32714200  1
  C  209  1  0.36033200  0.04627900  0.29928500  1
  C  210  1  0.38226700  0.04467500  0.27381400  1
  C  211  1  0.41970200  0.04545100  0.27637600  1
  C  212  1  0.43466700  0.04752000  0.30496400  1
  C  213  1  0.41326100  0.04946100  0.33033100  1
  C  214  1  0.35462600  0.05078500  0.37994300  1
  C  215  1  0.32462700  0.04941600  0.39818600  1
  C  216  1  0.29069300  0.04542600  0.38584200  1
  C  217  1  0.28734100  0.04364500  0.35439300  1
  C  218  1  0.30018100  0.07067000  0.28542600  1
  C  219  1  0.27836600  0.05340200  0.26497300  1
  C  220  1  0.28267200  0.01741500  0.26696800  1
  C  221  1  0.30699100  0.00970300  0.28928700  1
  C  222  1  0.26714800  0.99124800  0.24923400  1
  C  223  1  0.27604700  0.95598000  0.25414500  1
  C  224  1  0.29932800  0.94636700  0.27719500  1
  C  225  1  0.31525200  0.97365500  0.29437400  1
  C  226  1  0.29913900  0.10831800  0.28594200  1
  C  227  1  0.27583800  0.12733900  0.26681300  1
  C  228  1  0.25527400  0.10805300  0.24629800  1
  C  229  1  0.25607700  0.07135600  0.24536100  1
  C  242  1  0.32100400  0.04339800  0.30251300  1
  C  247  1  0.04490600  0.77389600  0.84037700  1
  C  248  1  0.05294000  0.74354900  0.85664900  1
  C  249  1  0.05416800  0.71486400  0.83786600  1
  C  250  1  0.04673200  0.72527100  0.80874000  1
  C  251  1  0.04410400  0.69825900  0.78676100  1
  C  252  1  0.04851000  0.66192200  0.79440900  1
  C  253  1  0.05851600  0.65380200  0.82387400  1
  C  254  1  0.06068500  0.67972300  0.84571900  1
  C  255  1  0.05750300  0.74382100  0.88757700  1
  C  256  1  0.05354400  0.77553500  0.90305400  1
  C  257  1  0.04437200  0.80683500  0.88807900  1
  C  258  1  0.04075500  0.80586200  0.85652600  1
  C  259  1  0.06996500  0.78304600  0.78890000  1
  C  260  1  0.05329800  0.80038400  0.76534300  1
  C  261  1  0.01730600  0.79648700  0.76737400  1
  C  262  1  0.00890500  0.77680000  0.79262000  1
  C  263  1  0.99172900  0.80969000  0.74780600  1
  C  264  1  0.95617500  0.80367800  0.75395500  1
  C  265  1  0.94576000  0.78583600  0.77997100  1
  C  266  1  0.97249500  0.77153600  0.79880900  1
  C  267  1  0.10749100  0.78572900  0.79072100  1
  C  268  1  0.12686700  0.80617000  0.76963000  1
  C  269  1  0.10825400  0.82181500  0.74587800  1
  C  270  1  0.07170900  0.81943600  0.74370100  1
  C  283  1  0.04239700  0.76489900  0.80778500  1
  C  288  1  0.04303900  0.31596200  0.83576300  1
  C  289  1  0.04008100  0.34900700  0.84940600  1
  C  290  1  0.03966000  0.37508000  0.82775800  1
  C  291  1  0.04188100  0.35929700  0.79976700  1
  C  292  1  0.04322500  0.38138600  0.77439700  1
  C  293  1  0.04240600  0.41877900  0.77715200  1
  C  294  1  0.04050900  0.43356400  0.80582000  1
  C  295  1  0.03893300  0.41195400  0.83111100  1
  C  296  1  0.03846600  0.35252600  0.88044200  1
  C  297  1  0.03993200  0.32220500  0.89834300  1
  C  298  1  0.04339000  0.28843300  0.88556400  1
  C  299  1  0.04472900  0.28558800  0.85408100  1
  C  300  1  0.01746600  0.29935100  0.78547800  1
  C  301  1  0.03466400  0.27775400  0.76482100  1
  C  302  1  0.07066800  0.28202000  0.76678300  1
  C  303  1  0.07842100  0.30613800  0.78924200  1
  C  304  1  0.09681900  0.26678700  0.74885600  1
  C  305  1  0.13209400  0.27567800  0.75379400  1
  C  306  1  0.14171900  0.29869800  0.77703200  1
  C  307  1  0.11445200  0.31439900  0.79436100  1
  C  308  1  0.97982800  0.29839800  0.78606600  1
  C  309  1  0.96071900  0.27532300  0.76681800  1
  C  310  1  0.97991200  0.25496300  0.74609000  1
  C  311  1  0.01661200  0.25570800  0.74508100  1
  C  324  1  0.04478000  0.31996900  0.80265100  1
  C  329  1  0.84899700  0.87947100  0.72616400  1
  C  330  1  0.87521200  0.88425100  0.74812500  1
  C  331  1  0.88665400  0.85564400  0.76546700  1
  C  332  1  0.87264700  0.82181500  0.76028200  1
  C  337  1  0.83935800  0.90803400  0.70857200  1
  C  339  1  0.88107700  0.79277200  0.77790500  1
  C  341  1  0.24351500  0.20973500  0.72678200  1
  C  342  1  0.22114300  0.20444500  0.75147500  1
  C  343  1  0.20842500  0.23344300  0.76768400  1
  C  344  1  0.21717400  0.26784400  0.75853400  1
  C  349  1  0.25186300  0.18130600  0.70877200  1
  C  351  1  0.20670800  0.29764700  0.77418900  1
  C  353  1  0.87981000  0.23916800  0.22612400  1
  C  354  1  0.88456300  0.21276300  0.24793000  1
  C  355  1  0.85594400  0.20121800  0.26520300  1
  C  356  1  0.82214600  0.21534400  0.26011500  1
  C  361  1  0.90844400  0.24914600  0.20873100  1
  C  363  1  0.79311800  0.20688300  0.27772700  1
  C  365  1  0.21001000  0.84495700  0.22692300  1
  C  366  1  0.20484300  0.86682700  0.25195300  1
  C  367  1  0.23392900  0.87940800  0.26812800  1
  C  368  1  0.26828800  0.87099200  0.25865100  1
  C  373  1  0.18146700  0.83689800  0.20891900  1
  C  375  1  0.29818000  0.88137800  0.27423500  1
  C  377  1  0.23733700  0.21026100  0.25152600  1
  C  378  1  0.21399000  0.20652400  0.22727100  1
  C  379  1  0.20304500  0.23626000  0.21106900  1
  C  380  1  0.21458800  0.27003700  0.21969200  1
  C  385  1  0.24508700  0.18089300  0.26877500  1
  C  387  1  0.20589000  0.30046700  0.20390800  1
  C  389  1  0.84802900  0.87975000  0.25529700  1
  C  390  1  0.86746800  0.88300600  0.22867000  1
  C  391  1  0.87845400  0.85277500  0.21315500  1
  C  392  1  0.87103100  0.81914200  0.22483700  1
  C  397  1  0.84060000  0.90986900  0.27174200  1
  C  399  1  0.88049800  0.78812000  0.21031000  1
  C  401  1  0.20835400  0.84789500  0.75497200  1
  C  402  1  0.20532400  0.86748200  0.72840300  1
  C  403  1  0.23568100  0.87849100  0.71307200  1
  C  404  1  0.26922500  0.87095700  0.72488000  1
  C  409  1  0.17809300  0.84054300  0.77121300  1
  C  411  1  0.30038000  0.88038300  0.71051200  1
  C  413  1  0.87771800  0.23706600  0.75150200  1
  C  414  1  0.88146800  0.21400900  0.72705200  1
  C  415  1  0.85171700  0.20311400  0.71085300  1
  C  416  1  0.81793300  0.21443800  0.71965700  1
  C  421  1  0.90712800  0.24479000  0.76872000  1
  C  423  1  0.78749400  0.20569200  0.70392200  1
  C  425  1  0.50456200  0.04567100  0.74949100  1
  C  426  1  0.53278200  0.03693900  0.76884800  1
  C  427  1  0.56825200  0.04277400  0.76041700  1
  C  428  1  0.57571400  0.05816100  0.73265000  1
  C  433  1  0.46901800  0.04017500  0.75715900  1
  C  435  1  0.60873200  0.06305900  0.71952400  1
  C  437  1  0.04663700  0.58545700  0.24854300  1
  C  438  1  0.03510700  0.55724200  0.26680800  1
  C  439  1  0.04103600  0.52179600  0.25846500  1
  C  440  1  0.05932800  0.51432600  0.23197400  1
  C  445  1  0.04136700  0.62089600  0.25644100  1
  C  447  1  0.06337600  0.48137900  0.21850200  1
  C  449  1  0.50402100  0.04561700  0.24755100  1
  C  450  1  0.53295800  0.03476600  0.22981900  1
  C  451  1  0.56796700  0.03947000  0.23975700  1
  C  452  1  0.57417300  0.05576900  0.26735100  1
  C  457  1  0.46912200  0.04217400  0.23784200  1
  C  459  1  0.60673300  0.06017800  0.28127900  1
  C  461  1  0.04195400  0.50302300  0.74770900  1
  C  462  1  0.05246700  0.53172400  0.72957200  1
  C  463  1  0.04771100  0.56685500  0.73916600  1
  C  464  1  0.03168500  0.57339700  0.76681600  1
  C  469  1  0.04541400  0.46802600  0.73831800  1
  C  471  1  0.02738400  0.60614200  0.78044100  1
  C  473  1  0.84233700  0.05033900  0.45639400  1
  C  474  1  0.86049200  0.03388300  0.48012400  1
  C  475  1  0.84869200  0.03784200  0.50965800  1
  C  476  1  0.81912800  0.05921300  0.51576500  1
  C  481  1  0.85553300  0.04965600  0.42739600  1
  C  483  1  0.80175500  0.06205500  0.54307500  1
  C  485  1  0.25916500  0.04206700  0.45728200  1
  C  486  1  0.23886800  0.05445100  0.48156400  1
  C  487  1  0.25084500  0.05014300  0.51098600  1
  C  488  1  0.28298600  0.03262800  0.51634900  1
  C  493  1  0.24624600  0.04355700  0.42822700  1
  C  495  1  0.29940800  0.02846800  0.54389200  1
  C  497  1  0.04810700  0.25327000  0.95629600  1
  C  498  1  0.03767800  0.23118200  0.98012200  1
  C  499  1  0.04255700  0.24187700  0.00983000  1
  C  500  1  0.05875500  0.27453200  0.01590800  1
  C  505  1  0.04549300  0.24207500  0.92679700  1
  C  507  1  0.06212000  0.29040700  0.04375900  1
  C  509  1  0.03903500  0.83636000  0.95758800  1
  C  510  1  0.05659700  0.85298700  0.98154300  1
  C  511  1  0.05323600  0.83984700  0.01073100  1
  C  512  1  0.03144400  0.81043900  0.01627300  1
  C  517  1  0.03880900  0.85108300  0.92911100  1
  C  519  1  0.02787400  0.79269600  0.04335400  1
  N  38  1  0.81067000  0.92509100  0.71453500  1
  N  39  1  0.80820400  0.04400600  0.56698500  1
  N  40  1  0.63482200  0.04119000  0.72218100  1
  N  41  1  0.77507900  0.17502500  0.69683000  1
  N  79  1  0.27796600  0.16112100  0.71601000  1
  N  80  1  0.29253300  0.04542000  0.56826400  1
  N  81  1  0.44009000  0.04040600  0.74190500  1
  N  82  1  0.31173300  0.91121700  0.70273300  1
  N  120  1  0.92531800  0.27788200  0.21480200  1
  N  121  1  0.04405100  0.28260000  0.06734300  1
  N  122  1  0.04236900  0.45478300  0.22245700  1
  N  123  1  0.17526300  0.31311000  0.19696000  1
  N  161  1  0.16121000  0.81069400  0.21569700  1
  N  162  1  0.04489600  0.79837600  0.06791600  1
  N  163  1  0.04121200  0.64979800  0.24120100  1
  N  164  1  0.91135600  0.77695500  0.20242700  1
  N  202  1  0.78054600  0.17640400  0.28511400  1
  N  203  1  0.84017200  0.04746200  0.40186400  1
  N  204  1  0.63481400  0.04130600  0.27700500  1
  N  205  1  0.81091900  0.92596400  0.26783800  1
  N  243  1  0.30870100  0.91272700  0.28118300  1
  N  244  1  0.26187400  0.04458600  0.40281600  1
  N  245  1  0.43955900  0.04282000  0.25201700  1
  N  246  1  0.27302300  0.16246100  0.26320800  1
  N  284  1  0.91153100  0.78010200  0.78527900  1
  N  285  1  0.04081400  0.83707300  0.90301500  1
  N  286  1  0.04646400  0.63400400  0.77580800  1
  N  287  1  0.16196500  0.81079000  0.76760400  1
  N  325  1  0.17533000  0.30808600  0.78111300  1
  N  326  1  0.04411900  0.25929700  0.90214800  1
  N  327  1  0.04485000  0.43872100  0.75285100  1
  N  328  1  0.92559800  0.27269700  0.76325100  1
  N  333  1  0.84709600  0.81945000  0.73905800  1
  N  336  1  0.83614200  0.84622100  0.72288100  1
  N  345  1  0.23889800  0.27079500  0.73458100  1
  N  348  1  0.25086800  0.24369400  0.71939800  1
  N  357  1  0.81981200  0.24109100  0.23906200  1
  N  360  1  0.84659500  0.25214300  0.22295100  1
  N  369  1  0.27112500  0.84972900  0.23439900  1
  N  372  1  0.24394000  0.83791900  0.21922900  1
  N  381  1  0.23726400  0.27145000  0.24314900  1
  N  384  1  0.24767600  0.24364100  0.25830400  1
  N  393  1  0.85189900  0.81815400  0.25043000  1
  N  396  1  0.84139500  0.84641900  0.26491500  1
  N  405  1  0.26999100  0.85169800  0.75041300  1
  N  408  1  0.24161000  0.84117300  0.76473200  1
  N  417  1  0.81650600  0.23686000  0.74328500  1
  N  420  1  0.84433100  0.24722100  0.75844100  1
  N  429  1  0.54711500  0.06634000  0.71572900  1
  N  432  1  0.51433800  0.06085700  0.72358300  1
  N  441  1  0.07021000  0.54297300  0.21617300  1
  N  444  1  0.06473300  0.57582000  0.22391900  1
  N  453  1  0.54491000  0.06585800  0.28272700  1
  N  456  1  0.51241600  0.06143900  0.27356400  1
  N  465  1  0.02196200  0.54432200  0.78261400  1
  N  468  1  0.02643900  0.51170100  0.77379100  1
  N  477  1  0.80360100  0.07442900  0.49162700  1
  N  480  1  0.81448400  0.07086200  0.46415100  1
  N  489  1  0.30063400  0.02126900  0.49174900  1
  N  492  1  0.28961300  0.02524800  0.46435900  1
  N  501  1  0.06817100  0.29395900  0.99167900  1
  N  504  1  0.06364400  0.28416100  0.96402900  1
  N  513  1  0.01513500  0.79644600  0.99198100  1
  N  516  1  0.01815400  0.80857200  0.96482800  1
