# generated using pymatgen
data_CdH7C12(NO2)2
_symmetry_space_group_name_H-M   'P 1'
_cell_length_a   7.85079000
_cell_length_b   14.70349000
_cell_length_c   26.77160000
_cell_angle_alpha   89.98746000
_cell_angle_beta   90.04036000
_cell_angle_gamma   89.97142000
_symmetry_Int_Tables_number   1
_chemical_formula_structural   CdH7C12(NO2)2
_chemical_formula_sum   'Cd8 H56 C96 N16 O32'
_cell_volume   3090.35197711
_cell_formula_units_Z   8
loop_
 _symmetry_equiv_pos_site_id
 _symmetry_equiv_pos_as_xyz
  1  'x, y, z'
loop_
 _atom_site_type_symbol
 _atom_site_label
 _atom_site_symmetry_multiplicity
 _atom_site_fract_x
 _atom_site_fract_y
 _atom_site_fract_z
 _atom_site_occupancy
  Cd  Cd1  1  0.61340000  0.76525000  0.66189000  1.0
  Cd  Cd2  1  0.76622000  0.17106000  0.60210000  1.0
  Cd  Cd3  1  0.38672000  0.73562000  0.16197000  1.0
  Cd  Cd4  1  0.23311000  0.33036000  0.10183000  1.0
  Cd  Cd5  1  0.38661000  0.23474000  0.33811000  1.0
  Cd  Cd6  1  0.23379000  0.82893000  0.39790000  1.0
  Cd  Cd7  1  0.61329000  0.26437000  0.83803000  1.0
  Cd  Cd8  1  0.76690000  0.66964000  0.89817000  1.0
  H  H1  1  0.07369000  0.73731000  0.72118000  1.0
  H  H2  1  0.82947000  0.72748000  0.78033000  1.0
  H  H3  1  0.15625000  0.71347000  0.90197000  1.0
  H  H4  1  0.22883000  0.75776000  0.64716000  1.0
  H  H5  1  0.56031000  0.96405000  0.60699000  1.0
  H  H6  1  0.31548000  0.06188000  0.57711000  1.0
  H  H7  1  0.47910000  0.55734000  0.64721000  1.0
  H  H8  1  0.43379000  0.44188000  0.58093000  1.0
  H  H9  1  0.57555000  0.64982000  0.47310000  1.0
  H  H10  1  0.62824000  0.75209000  0.54462000  1.0
  H  H11  1  0.95320000  0.72681000  0.00744000  1.0
  H  H12  1  0.05812000  0.86518000  0.04801000  1.0
  H  H13  1  0.85626000  0.01867000  0.92264000  1.0
  H  H14  1  0.74647000  0.87366000  0.88951000  1.0
  H  H15  1  0.92553000  0.76260000  0.22125000  1.0
  H  H16  1  0.17064000  0.76937000  0.28013000  1.0
  H  H17  1  0.84659000  0.78051000  0.40229000  1.0
  H  H18  1  0.77004000  0.74317000  0.14750000  1.0
  H  H19  1  0.44178000  0.53569000  0.10673000  1.0
  H  H20  1  0.68813000  0.44000000  0.07613000  1.0
  H  H21  1  0.52262000  0.94324000  0.14726000  1.0
  H  H22  1  0.56456000  0.05895000  0.08088000  1.0
  H  H23  1  0.42965000  0.84950000  0.97317000  1.0
  H  H24  1  0.38039000  0.74694000  0.04470000  1.0
  H  H25  1  0.04966000  0.77315000  0.50736000  1.0
  H  H26  1  0.94385000  0.63462000  0.54810000  1.0
  H  H27  1  0.14317000  0.48096000  0.42265000  1.0
  H  H28  1  0.25396000  0.62566000  0.38950000  1.0
  H  H29  1  0.92632000  0.26268000  0.27883000  1.0
  H  H30  1  0.17053000  0.27252000  0.21968000  1.0
  H  H31  1  0.84376000  0.28652000  0.09803000  1.0
  H  H32  1  0.77118000  0.24223000  0.35284000  1.0
  H  H33  1  0.43970000  0.03594000  0.39301000  1.0
  H  H34  1  0.68452000  0.93812000  0.42290000  1.0
  H  H35  1  0.52091000  0.44265000  0.35279000  1.0
  H  H36  1  0.56622000  0.55811000  0.41908000  1.0
  H  H37  1  0.42446000  0.35017000  0.52690000  1.0
  H  H38  1  0.37177000  0.24791000  0.45538000  1.0
  H  H39  1  0.04681000  0.27319000  0.99257000  1.0
  H  H40  1  0.94189000  0.13482000  0.95199000  1.0
  H  H41  1  0.14375000  0.98132000  0.07736000  1.0
  H  H42  1  0.25354000  0.12633000  0.11049000  1.0
  H  H43  1  0.07448000  0.23739000  0.77876000  1.0
  H  H44  1  0.82937000  0.23062000  0.71988000  1.0
  H  H45  1  0.15342000  0.21949000  0.59771000  1.0
  H  H46  1  0.22997000  0.25683000  0.85250000  1.0
  H  H47  1  0.55823000  0.46430000  0.89327000  1.0
  H  H48  1  0.31187000  0.55999000  0.92388000  1.0
  H  H49  1  0.47739000  0.05675000  0.85275000  1.0
  H  H50  1  0.43545000  0.94104000  0.91912000  1.0
  H  H51  1  0.57036000  0.15049000  0.02683000  1.0
  H  H52  1  0.61961000  0.25306000  0.95531000  1.0
  H  H53  1  0.95035000  0.22685000  0.49265000  1.0
  H  H54  1  0.05615000  0.36537000  0.45190000  1.0
  H  H55  1  0.85683000  0.51903000  0.57736000  1.0
  H  H56  1  0.74604000  0.37433000  0.61050000  1.0
  C  C1  1  0.40805000  0.72908000  0.74217000  1.0
  C  C2  1  0.26509000  0.72609000  0.77947000  1.0
  C  C3  1  0.09803000  0.73077000  0.76096000  1.0
  C  C4  1  0.96082000  0.72644000  0.79365000  1.0
  C  C5  1  0.14273000  0.71975000  0.86167000  1.0
  C  C6  1  0.28773000  0.72229000  0.83147000  1.0
  C  C7  1  0.45588000  0.71007000  0.85671000  1.0
  C  C8  1  0.92543000  0.83249000  0.62158000  1.0
  C  C9  1  0.09847000  0.87571000  0.61711000  1.0
  C  C10  1  0.24178000  0.82575000  0.63156000  1.0
  C  C11  1  0.42851000  0.94113000  0.60879000  1.0
  C  C12  1  0.29302000  0.99452000  0.59253000  1.0
  C  C13  1  0.12516000  0.96291000  0.59699000  1.0
  C  C14  1  0.98272000  0.02867000  0.58614000  1.0
  C  C15  1  0.50223000  0.57339000  0.60807000  1.0
  C  C16  1  0.47485000  0.50998000  0.57043000  1.0
  C  C17  1  0.50714000  0.53373000  0.52037000  1.0
  C  C18  1  0.55556000  0.62398000  0.51077000  1.0
  C  C19  1  0.58219000  0.68312000  0.55050000  1.0
  C  C20  1  0.92966000  0.79312000  0.99054000  1.0
  C  C21  1  0.99065000  0.87231000  0.01277000  1.0
  C  C22  1  0.96754000  0.95700000  0.98918000  1.0
  C  C23  1  0.87951000  0.95648000  0.94349000  1.0
  C  C24  1  0.81817000  0.87520000  0.92433000  1.0
  C  C25  1  0.59180000  0.77054000  0.24249000  1.0
  C  C26  1  0.73498000  0.77236000  0.27986000  1.0
  C  C27  1  0.90171000  0.76784000  0.26111000  1.0
  C  C28  1  0.03961000  0.77055000  0.29364000  1.0
  C  C29  1  0.85906000  0.77550000  0.36193000  1.0
  C  C30  1  0.71319000  0.77452000  0.33199000  1.0
  C  C31  1  0.54546000  0.78743000  0.35754000  1.0
  C  C32  1  0.07358000  0.67119000  0.12140000  1.0
  C  C33  1  0.90221000  0.62648000  0.11674000  1.0
  C  C34  1  0.75812000  0.67531000  0.13169000  1.0
  C  C35  1  0.57315000  0.55937000  0.10856000  1.0
  C  C36  1  0.70959000  0.50709000  0.09196000  1.0
  C  C37  1  0.87711000  0.53939000  0.09633000  1.0
  C  C38  1  0.02030000  0.47407000  0.08516000  1.0
  C  C39  1  0.50022000  0.92689000  0.10811000  1.0
  C  C40  1  0.52568000  0.99046000  0.07043000  1.0
  C  C41  1  0.49412000  0.96627000  0.02039000  1.0
  C  C42  1  0.44892000  0.87552000  0.01083000  1.0
  C  C43  1  0.42421000  0.81627000  0.05060000  1.0
  C  C44  1  0.07240000  0.70665000  0.49060000  1.0
  C  C45  1  0.01098000  0.62759000  0.51284000  1.0
  C  C46  1  0.03294000  0.54289000  0.48920000  1.0
  C  C47  1  0.12069000  0.54317000  0.44352000  1.0
  C  C48  1  0.18265000  0.62429000  0.42436000  1.0
  C  C49  1  0.59196000  0.27092000  0.25783000  1.0
  C  C50  1  0.73492000  0.27391000  0.22053000  1.0
  C  C51  1  0.90197000  0.26922000  0.23904000  1.0
  C  C52  1  0.03919000  0.27355000  0.20636000  1.0
  C  C53  1  0.85727000  0.28024000  0.13833000  1.0
  C  C54  1  0.71228000  0.27770000  0.16853000  1.0
  C  C55  1  0.54413000  0.28993000  0.14329000  1.0
  C  C56  1  0.07458000  0.16750000  0.37842000  1.0
  C  C57  1  0.90154000  0.12428000  0.38289000  1.0
  C  C58  1  0.75823000  0.17424000  0.36844000  1.0
  C  C59  1  0.57150000  0.05887000  0.39121000  1.0
  C  C60  1  0.70698000  0.00547000  0.40747000  1.0
  C  C61  1  0.87485000  0.03708000  0.40302000  1.0
  C  C62  1  0.01729000  0.97132000  0.41386000  1.0
  C  C63  1  0.49777000  0.42660000  0.39193000  1.0
  C  C64  1  0.52516000  0.49002000  0.42957000  1.0
  C  C65  1  0.49287000  0.46627000  0.47963000  1.0
  C  C66  1  0.44445000  0.37601000  0.48923000  1.0
  C  C67  1  0.41782000  0.31687000  0.44950000  1.0
  C  C68  1  0.07035000  0.20687000  0.00946000  1.0
  C  C69  1  0.00936000  0.12768000  0.98723000  1.0
  C  C70  1  0.03246000  0.04300000  0.01083000  1.0
  C  C71  1  0.12050000  0.04352000  0.05651000  1.0
  C  C72  1  0.18184000  0.12480000  0.07568000  1.0
  C  C73  1  0.40821000  0.22946000  0.75751000  1.0
  C  C74  1  0.26502000  0.22763000  0.72014000  1.0
  C  C75  1  0.09830000  0.23216000  0.73889000  1.0
  C  C76  1  0.96040000  0.22944000  0.70636000  1.0
  C  C77  1  0.14095000  0.22449000  0.63808000  1.0
  C  C78  1  0.28682000  0.22547000  0.66801000  1.0
  C  C79  1  0.45455000  0.21256000  0.64246000  1.0
  C  C80  1  0.92643000  0.32881000  0.87860000  1.0
  C  C81  1  0.09780000  0.37351000  0.88327000  1.0
  C  C82  1  0.24189000  0.32469000  0.86832000  1.0
  C  C83  1  0.42686000  0.44062000  0.89144000  1.0
  C  C84  1  0.29042000  0.49290000  0.90804000  1.0
  C  C85  1  0.12290000  0.46061000  0.90367000  1.0
  C  C86  1  0.97970000  0.52593000  0.91484000  1.0
  C  C87  1  0.49979000  0.07310000  0.89189000  1.0
  C  C88  1  0.47433000  0.00953000  0.92957000  1.0
  C  C89  1  0.50589000  0.03373000  0.97961000  1.0
  C  C90  1  0.55108000  0.12447000  0.98918000  1.0
  C  C91  1  0.57580000  0.18372000  0.94941000  1.0
  C  C92  1  0.92761000  0.29334000  0.50940000  1.0
  C  C93  1  0.98903000  0.37240000  0.48716000  1.0
  C  C94  1  0.96707000  0.45711000  0.51081000  1.0
  C  C95  1  0.87931000  0.45682000  0.55648000  1.0
  C  C96  1  0.81735000  0.37570000  0.57564000  1.0
  N  N1  1  0.98271000  0.71914000  0.84349000  1.0
  N  N2  1  0.40264000  0.85747000  0.62806000  1.0
  N  N3  1  0.56034000  0.65803000  0.59850000  1.0
  N  N4  1  0.84282000  0.79450000  0.94711000  1.0
  N  N5  1  0.01878000  0.77610000  0.34356000  1.0
  N  N6  1  0.59782000  0.64280000  0.12826000  1.0
  N  N7  1  0.44476000  0.84176000  0.09858000  1.0
  N  N8  1  0.15873000  0.70500000  0.44714000  1.0
  N  N9  1  0.01729000  0.28086000  0.15651000  1.0
  N  N10  1  0.59737000  0.14252000  0.37194000  1.0
  N  N11  1  0.43966000  0.34197000  0.40150000  1.0
  N  N12  1  0.15719000  0.20549000  0.05289000  1.0
  N  N13  1  0.98123000  0.22390000  0.65644000  1.0
  N  N14  1  0.40219000  0.35719000  0.87174000  1.0
  N  N15  1  0.55525000  0.15823000  0.90143000  1.0
  N  N16  1  0.84128000  0.29500000  0.55287000  1.0
  O  O1  1  0.52613000  0.78739000  0.74755000  1.0
  O  O2  1  0.39360000  0.67725000  0.70420000  1.0
  O  O3  1  0.55798000  0.65102000  0.83860000  1.0
  O  O4  1  0.48476000  0.75445000  0.89677000  1.0
  O  O5  1  0.88513000  0.80489000  0.66615000  1.0
  O  O6  1  0.83641000  0.82210000  0.58327000  1.0
  O  O7  1  0.84955000  0.02268000  0.61367000  1.0
  O  O8  1  0.00840000  0.09202000  0.55512000  1.0
  O  O9  1  0.47288000  0.71268000  0.24759000  1.0
  O  O10  1  0.60722000  0.82262000  0.20463000  1.0
  O  O11  1  0.44227000  0.84505000  0.33852000  1.0
  O  O12  1  0.51726000  0.74557000  0.39852000  1.0
  O  O13  1  0.11646000  0.69496000  0.16638000  1.0
  O  O14  1  0.15841000  0.68659000  0.08281000  1.0
  O  O15  1  0.15697000  0.48177000  0.11107000  1.0
  O  O16  1  0.99161000  0.40893000  0.05540000  1.0
  O  O17  1  0.47388000  0.21260000  0.25245000  1.0
  O  O18  1  0.60641000  0.32274000  0.29581000  1.0
  O  O19  1  0.44203000  0.34897000  0.16141000  1.0
  O  O20  1  0.51525000  0.24554000  0.10323000  1.0
  O  O21  1  0.11488000  0.19511000  0.33386000  1.0
  O  O22  1  0.16360000  0.17789000  0.41673000  1.0
  O  O23  1  0.15046000  0.97731000  0.38634000  1.0
  O  O24  1  0.99160000  0.90797000  0.44488000  1.0
  O  O25  1  0.52712000  0.28731000  0.75242000  1.0
  O  O26  1  0.39278000  0.17738000  0.79538000  1.0
  O  O27  1  0.55774000  0.15495000  0.66149000  1.0
  O  O28  1  0.48275000  0.25443000  0.60148000  1.0
  O  O29  1  0.88355000  0.30504000  0.83363000  1.0
  O  O30  1  0.84160000  0.31340000  0.91720000  1.0
  O  O31  1  0.84304000  0.51822000  0.88894000  1.0
  O  O32  1  0.00839000  0.59106000  0.94461000  1.0
