# generated using pymatgen
data_H11C22(NO)4
_symmetry_space_group_name_H-M   'P 1'
_cell_length_a   39.46896612
_cell_length_b   39.46896612
_cell_length_c   39.46896612
_cell_angle_alpha   104.47753759
_cell_angle_beta   104.47753759
_cell_angle_gamma   119.99994321
_symmetry_Int_Tables_number   1
_chemical_formula_structural   H11C22(NO)4
_chemical_formula_sum   'H176 C352 N64 O64'
_cell_volume   46113.55863643
_cell_formula_units_Z   16
loop_
 _symmetry_equiv_pos_site_id
 _symmetry_equiv_pos_as_xyz
  1  'x, y, z'
loop_
 _atom_site_type_symbol
 _atom_site_label
 _atom_site_symmetry_multiplicity
 _atom_site_fract_x
 _atom_site_fract_y
 _atom_site_fract_z
 _atom_site_occupancy
  C  1  1  0.98026450  0.98936250  0.00146600  1
  C  2  1  0.95615250  0.00675200  0.99774750  1
  C  3  1  0.91616750  0.98576850  0.00035600  1
  C  4  1  0.90109600  0.94878350  0.00731750  1
  C  5  1  0.92378850  0.93041250  0.01014200  1
  C  6  1  0.96404500  0.95114600  0.00775800  1
  C  7  1  0.97263850  0.04452050  0.99155900  1
  C  8  1  0.98849150  0.93453350  0.01113100  1
  C  10  1  0.02051650  0.01025300  0.99867150  1
  C  11  1  0.03673750  0.04846900  0.99237750  1
  C  12  1  0.07700350  0.06921150  0.99000800  1
  C  13  1  0.09967300  0.05080850  0.99279750  1
  C  14  1  0.08459600  0.01382600  0.99975700  1
  C  15  1  0.04462300  0.99285800  0.00238400  1
  C  16  1  0.01228050  0.06507200  0.98899550  1
  C  18  1  0.02812750  0.95507800  0.00856050  1
  C  27  1  0.98863050  0.47853000  0.49854050  1
  C  28  1  0.00962350  0.45802950  0.50228900  1
  C  29  1  0.98588250  0.41540750  0.49959600  1
  C  30  1  0.94190350  0.39343800  0.49251350  1
  C  31  1  0.92081750  0.41340450  0.48962800  1
  C  32  1  0.94408200  0.45608550  0.49211850  1
  C  33  1  0.05362450  0.48064200  0.50860450  1
  C  34  1  0.92420800  0.47725750  0.48871450  1
  C  36  1  0.01246750  0.52161200  0.50143750  1
  C  37  1  0.05701350  0.54405650  0.50785800  1
  C  38  1  0.08027800  0.58673850  0.51034650  1
  C  39  1  0.05918650  0.60669850  0.50745200  1
  C  40  1  0.01521550  0.58473700  0.50038950  1
  C  41  1  0.99147400  0.54211350  0.49769250  1
  C  42  1  0.07689050  0.52288650  0.51126900  1
  C  44  1  0.94747400  0.51950200  0.49138100  1
  C  53  1  0.49006350  0.48825050  0.50974900  1
  C  54  1  0.50739900  0.50939900  0.55124300  1
  C  55  1  0.48636150  0.48584700  0.57024250  1
  C  56  1  0.44937200  0.44190650  0.54834150  1
  C  57  1  0.43105500  0.42066700  0.50728100  1
  C  58  1  0.45184750  0.44373950  0.48775800  1
  C  59  1  0.54517600  0.55335100  0.57251800  1
  C  60  1  0.43529900  0.42371100  0.44670800  1
  C  62  1  0.51101450  0.51188650  0.49038800  1
  C  63  1  0.54922950  0.55639650  0.51237700  1
  C  64  1  0.57002200  0.57946950  0.49285550  1
  C  65  1  0.55171050  0.55822750  0.45179700  1
  C  66  1  0.51471350  0.51428900  0.42989250  1
  C  67  1  0.49367650  0.49073900  0.44889250  1
  C  68  1  0.56577950  0.57642450  0.55342700  1
  C  70  1  0.45590100  0.44678400  0.42761600  1
  C  79  1  0.97895450  0.47992300  0.99048850  1
  C  80  1  0.95852700  0.45569000  0.94899700  1
  C  81  1  0.91594000  0.41571000  0.93007300  1
  C  82  1  0.89393950  0.40074850  0.95204100  1
  C  83  1  0.91382250  0.42359700  0.99308950  1
  C  84  1  0.95646900  0.46383500  0.01254600  1
  C  85  1  0.98117450  0.47205400  0.92765550  1
  C  86  1  0.97756550  0.48839750  0.05359000  1
  C  88  1  0.02199900  0.52016250  0.00977850  1
  C  89  1  0.04448550  0.53625650  0.98772400  1
  C  90  1  0.08712900  0.57650550  0.00718350  1
  C  91  1  0.10702450  0.59932550  0.04824000  1
  C  92  1  0.08502200  0.58436050  0.07020150  1
  C  93  1  0.04242250  0.54438900  0.05126850  1
  C  94  1  0.02338450  0.51168750  0.94667800  1
  C  96  1  0.01977750  0.52801950  0.07261100  1
  C  105  1  0.52006300  0.02159800  0.50718100  1
  C  106  1  0.54999550  0.04534350  0.54773600  1
  C  107  1  0.58841350  0.08818600  0.56218250  1
  C  108  1  0.59734900  0.10624750  0.53618550  1
  C  109  1  0.56841350  0.08353750  0.49614700  1
  C  110  1  0.52929350  0.04086150  0.48132500  1
  C  111  1  0.54044500  0.02576500  0.57281400  1
  C  112  1  0.49900250  0.01658100  0.44138250  1
  C  114  1  0.48102400  0.97854250  0.49267450  1
  C  115  1  0.47179000  0.95927850  0.51853050  1
  C  116  1  0.43266500  0.91660200  0.50370600  1
  C  117  1  0.40373700  0.89388850  0.46366550  1
  C  118  1  0.41268000  0.91195500  0.43767400  1
  C  119  1  0.45109450  0.95479600  0.45211750  1
  C  120  1  0.50208000  0.98356350  0.55847450  1
  C  122  1  0.46064250  0.97437600  0.42704150  1
  C  131  1  0.51462900  0.51211300  0.99272900  1
  C  132  1  0.49797950  0.50162550  0.95219900  1
  C  133  1  0.52654450  0.52558750  0.93786900  1
  C  134  1  0.57060800  0.56040750  0.96396650  1
  C  135  1  0.58777450  0.57137250  0.00398300  1
  C  136  1  0.55975700  0.54706650  0.01868450  1
  C  137  1  0.45331050  0.46712950  0.92702800  1
  C  138  1  0.57525950  0.55659250  0.05860000  1
  C  140  1  0.48591500  0.48758700  0.00712100  1
  C  141  1  0.44078650  0.45263100  0.98116550  1
  C  142  1  0.41277100  0.42832350  0.99586550  1
  C  143  1  0.42993750  0.43927350  0.03587700  1
  C  144  1  0.47400300  0.47408950  0.06197350  1
  C  145  1  0.50256400  0.49806850  0.04764950  1
  C  146  1  0.42528250  0.44310500  0.94124850  1
  C  148  1  0.54723300  0.53256350  0.07281950  1
  C  157  1  0.01277200  0.01953150  0.49797450  1
  C  158  1  0.00227550  0.04956200  0.50419350  1
  C  159  1  0.02627900  0.08792100  0.49969800  1
  C  160  1  0.06111100  0.09670000  0.49045600  1
  C  161  1  0.07208700  0.06766200  0.48420200  1
  C  162  1  0.04775800  0.02859800  0.48783000  1
  C  163  1  0.96775100  0.04017500  0.51433800  1
  C  164  1  0.05729450  0.99821700  0.48179750  1
  C  166  1  0.98822050  0.98055650  0.50207300  1
  C  167  1  0.95323900  0.97149200  0.51222400  1
  C  168  1  0.92892150  0.93243650  0.51586500  1
  C  169  1  0.93990000  0.90340000  0.50961300  1
  C  170  1  0.97472250  0.91217250  0.50035900  1
  C  171  1  0.99872050  0.95052600  0.49585650  1
  C  172  1  0.94370600  0.00187550  0.51825950  1
  C  174  1  0.03324600  0.95991550  0.48571350  1
  C  183  1  0.52189950  0.01432650  0.00189700  1
  C  184  1  0.54572950  0.99761550  0.99572900  1
  C  185  1  0.58857150  0.02610000  0.00018750  1
  C  186  1  0.60655400  0.07014950  0.00934050  1
  C  187  1  0.58376150  0.08737700  0.01555750  1
  C  188  1  0.54108250  0.05943750  0.01195600  1
  C  189  1  0.52622900  0.95296850  0.98568050  1
  C  190  1  0.51672100  0.07500450  0.01794250  1
  C  192  1  0.47884400  0.98569600  0.99784100  1
  C  193  1  0.45966500  0.94058800  0.98779500  1
  C  194  1  0.41698650  0.91265250  0.98420400  1
  C  195  1  0.39418700  0.92988000  0.99039800  1
  C  196  1  0.41217000  0.97392550  0.99953450  1
  C  197  1  0.45501350  0.00240850  0.00400200  1
  C  198  1  0.48402750  0.92502300  0.98181050  1
  C  200  1  0.47451500  0.04705600  0.01405600  1
  C  417  1  0.70144500  0.66379650  0.04583550  1
  C  418  1  0.73088100  0.70876700  0.07231000  1
  C  419  1  0.76234950  0.73881850  0.06398300  1
  C  420  1  0.76571550  0.72488650  0.02909800  1
  C  421  1  0.73728150  0.67957550  0.00276000  1
  C  422  1  0.70584300  0.64971150  0.01158050  1
  C  424  1  0.79408550  0.75688800  0.01931950  1
  C  425  1  0.84031150  0.78573800  0.04171150  1
  C  426  1  0.86606300  0.81824800  0.03124800  1
  C  427  1  0.84683650  0.82275000  0.99887150  1
  C  428  1  0.80080250  0.79338250  0.97678100  1
  C  429  1  0.77495700  0.76124250  0.98686550  1
  C  441  1  0.87032200  0.85646900  0.98961100  1
  C  442  1  0.66790550  0.63491100  0.05253850  1
  C  445  1  0.61922800  0.15551500  0.45444800  1
  C  446  1  0.63747600  0.15858500  0.42778900  1
  C  447  1  0.67575700  0.19841650  0.43603150  1
  C  448  1  0.69689700  0.23658500  0.47105600  1
  C  449  1  0.67820150  0.23438600  0.49760650  1
  C  450  1  0.63958250  0.19410400  0.48884150  1
  C  452  1  0.73857500  0.27477600  0.48069900  1
  C  453  1  0.74470350  0.29883850  0.45851000  1
  C  454  1  0.78755300  0.33525200  0.46893600  1
  C  455  1  0.82461050  0.34834850  0.50107100  1
  C  456  1  0.81767700  0.32418900  0.52297400  1
  C  457  1  0.77557550  0.28804550  0.51290100  1
  C  469  1  0.86745600  0.38151850  0.51042150  1
  C  470  1  0.58366100  0.11523900  0.44773200  1
  C  473  1  0.16449100  0.11830850  0.46293650  1
  C  474  1  0.20944850  0.13675050  0.47839000  1
  C  475  1  0.23950250  0.17514650  0.47699700  1
  C  476  1  0.22558100  0.19616550  0.45979750  1
  C  477  1  0.18028200  0.17724900  0.44300200  1
  C  478  1  0.15041750  0.13854800  0.44455450  1
  C  480  1  0.25759050  0.23795450  0.46345000  1
  C  481  1  0.28634350  0.24439700  0.44596750  1
  C  482  1  0.31884450  0.28737150  0.45271800  1
  C  483  1  0.32342200  0.32426000  0.47654000  1
  C  484  1  0.29415950  0.31699950  0.49332300  1
  C  485  1  0.26202850  0.27477400  0.48703650  1
  C  497  1  0.35711450  0.36723100  0.48670850  1
  C  498  1  0.13561650  0.08270350  0.46757700  1
  C  501  1  0.65572700  0.20104150  0.03676450  1
  C  502  1  0.65883900  0.23077500  0.02157700  1
  C  503  1  0.69868050  0.26231600  0.02310950  1
  C  504  1  0.73681800  0.26540950  0.04012950  1
  C  505  1  0.73458150  0.23665450  0.05663300  1
  C  506  1  0.69428850  0.20518550  0.05498700  1
  C  508  1  0.77501650  0.29391100  0.03662450  1
  C  509  1  0.79912200  0.34017000  0.05454600  1
  C  510  1  0.83553050  0.36610950  0.04808600  1
  C  511  1  0.84858250  0.34702200  0.02411150  1
  C  512  1  0.82438350  0.30095450  0.00690400  1
  C  513  1  0.78824450  0.27492900  0.01288550  1
  C  525  1  0.88174800  0.37080000  0.01441200  1
  C  526  1  0.61544150  0.16752700  0.03207650  1
  C  529  1  0.29912900  0.33586950  0.95407350  1
  C  530  1  0.26968350  0.29089950  0.92759400  1
  C  531  1  0.23826900  0.26083850  0.93595250  1
  C  532  1  0.23496200  0.27475650  0.97087650  1
  C  533  1  0.26340400  0.32006600  0.99722100  1
  C  534  1  0.29479300  0.34994150  0.98836950  1
  C  536  1  0.20665200  0.24274250  0.98068150  1
  C  537  1  0.16042000  0.21386200  0.95833200  1
  C  538  1  0.13473400  0.18133100  0.96880900  1
  C  539  1  0.15402950  0.17683450  0.00116000  1
  C  540  1  0.20006800  0.20623050  0.02320550  1
  C  541  1  0.22585100  0.23839600  0.01310800  1
  C  553  1  0.13059350  0.14307650  0.01040800  1
  C  554  1  0.33262150  0.36475900  0.94733150  1
  C  557  1  0.38181350  0.84463000  0.54540950  1
  C  558  1  0.36359900  0.84156000  0.57209400  1
  C  559  1  0.32532450  0.80173250  0.56386700  1
  C  560  1  0.30415550  0.76356400  0.52883250  1
  C  561  1  0.32281300  0.76576350  0.50225250  1
  C  562  1  0.36142400  0.80604350  0.51100150  1
  C  564  1  0.26248400  0.72537600  0.51921000  1
  C  565  1  0.25637600  0.70131950  0.54140550  1
  C  566  1  0.21353500  0.66490400  0.53099800  1
  C  567  1  0.17646300  0.65179900  0.49887500  1
  C  568  1  0.18337350  0.67595300  0.47696750  1
  C  569  1  0.22546700  0.71209850  0.48702450  1
  C  581  1  0.13362500  0.61862300  0.48953800  1
  C  582  1  0.41737300  0.88490600  0.55211900  1
  C  585  1  0.83653100  0.88184650  0.53714750  1
  C  586  1  0.79154700  0.86330700  0.52157100  1
  C  587  1  0.76150850  0.82492750  0.52299000  1
  C  588  1  0.77546500  0.80401650  0.54033450  1
  C  589  1  0.82078500  0.82303100  0.55725500  1
  C  590  1  0.85063750  0.86172050  0.55567700  1
  C  592  1  0.74347950  0.76222950  0.53670400  1
  C  593  1  0.71460300  0.75574850  0.55405150  1
  C  594  1  0.68211400  0.71277000  0.54729800  1
  C  595  1  0.67766200  0.67590900  0.52360100  1
  C  596  1  0.70705650  0.68321000  0.50696450  1
  C  597  1  0.73918000  0.72544350  0.51325750  1
  C  609  1  0.64396700  0.63292300  0.51337300  1
  C  610  1  0.86540850  0.91743250  0.53248900  1
  C  613  1  0.34511100  0.79903250  0.96318050  1
  C  614  1  0.34208400  0.76938500  0.97845500  1
  C  615  1  0.30228650  0.73786250  0.97699900  1
  C  616  1  0.26410350  0.73469800  0.95996750  1
  C  617  1  0.26626100  0.76336650  0.94337850  1
  C  618  1  0.30651050  0.79482100  0.94494950  1
  C  620  1  0.22595750  0.70623200  0.96355650  1
  C  621  1  0.20191450  0.65997950  0.94576600  1
  C  622  1  0.16557850  0.63408700  0.95233150  1
  C  623  1  0.15253600  0.65321150  0.97628550  1
  C  624  1  0.17667150  0.69927200  0.99335850  1
  C  625  1  0.21273750  0.72525300  0.98727050  1
  C  637  1  0.11947700  0.62949800  0.98612200  1
  C  638  1  0.38536250  0.83253950  0.96779900  1
  C  865  1  0.17093550  0.00639250  0.03389300  1
  C  866  1  0.21535900  0.04282850  0.05169350  1
  C  867  1  0.24638750  0.03811500  0.04504550  1
  C  868  1  0.23371850  0.99684350  0.02058000  1
  C  869  1  0.18942650  0.95959550  0.00344000  1
  C  870  1  0.15843700  0.96485550  0.01030950  1
  C  872  1  0.26555300  0.99413650  0.01249750  1
  C  873  1  0.30060400  0.00070700  0.04179100  1
  C  874  1  0.33039250  0.99587600  0.03162150  1
  C  875  1  0.32609050  0.98481750  0.99300600  1
  C  876  1  0.29140550  0.97926250  0.96448800  1
  C  877  1  0.26168700  0.98411350  0.97414650  1
  C  889  1  0.35114600  0.97386050  0.98161950  1
  C  890  1  0.14038800  0.01326400  0.03597800  1
  C  893  1  0.97376250  0.63709800  0.46607150  1
  C  894  1  0.99179900  0.66351500  0.44791600  1
  C  895  1  0.99333850  0.70097000  0.45443350  1
  C  896  1  0.97681100  0.71279900  0.47919000  1
  C  897  1  0.95729350  0.68585000  0.49669250  1
  C  898  1  0.95601650  0.64817900  0.48989850  1
  C  900  1  0.98202550  0.75263650  0.48729300  1
  C  901  1  0.95884500  0.75817500  0.45812300  1
  C  902  1  0.96415550  0.79812050  0.46830600  1
  C  903  1  0.99207800  0.83259300  0.50683200  1
  C  904  1  0.01550100  0.82665550  0.53521550  1
  C  905  1  0.01072450  0.78729700  0.52553450  1
  C  917  1  0.99262400  0.86910000  0.51826900  1
  C  918  1  0.97916400  0.60487900  0.46417300  1
  C  921  1  0.50725750  0.47268300  0.33599650  1
  C  922  1  0.54342850  0.49073000  0.32759250  1
  C  923  1  0.53843200  0.49234750  0.29170450  1
  C  924  1  0.49713200  0.47579850  0.26336050  1
  C  925  1  0.46012250  0.45622700  0.27080050  1
  C  926  1  0.46566700  0.45492750  0.30719050  1
  C  928  1  0.49421100  0.48102200  0.22873200  1
  C  929  1  0.50029800  0.45794450  0.20003050  1
  C  930  1  0.49539750  0.46327100  0.16540150  1
  C  931  1  0.48476250  0.49117450  0.15886200  1
  C  932  1  0.47965050  0.51445250  0.18818600  1
  C  933  1  0.48457350  0.50965800  0.22276350  1
  C  945  1  0.47382400  0.49170550  0.12289950  1
  C  946  1  0.51453350  0.47793450  0.37357900  1
  C  949  1  0.13722000  0.67083050  0.16395450  1
  C  950  1  0.16370250  0.71529500  0.17202550  1
  C  951  1  0.20133750  0.74634200  0.20779450  1
  C  952  1  0.21328050  0.73363500  0.23630350  1
  C  953  1  0.18629000  0.68929650  0.22917150  1
  C  954  1  0.14843600  0.65830200  0.19292100  1
  C  956  1  0.25321100  0.76548300  0.27083000  1
  C  957  1  0.25886950  0.80036750  0.29943400  1
  C  958  1  0.29885250  0.83017900  0.33402950  1
  C  959  1  0.33324550  0.82599950  0.34066400  1
  C  960  1  0.32719850  0.79151650  0.31139900  1
  C  961  1  0.28779950  0.76178700  0.27685150  1
  C  973  1  0.36974600  0.85107950  0.37664250  1
  C  974  1  0.10470500  0.64034000  0.12648500  1
  C  977  1  0.82965100  0.99310950  0.96609450  1
  C  978  1  0.78508200  0.95690550  0.94789150  1
  C  979  1  0.75412550  0.96183500  0.95442650  1
  C  980  1  0.76700650  0.00309850  0.97917400  1
  C  981  1  0.81145250  0.04014350  0.99669300  1
  C  982  1  0.84236400  0.03466550  0.98992950  1
  C  984  1  0.73523150  0.00594950  0.98723600  1
  C  985  1  0.70046950  0.99984300  0.95801750  1
  C  986  1  0.67067350  0.00468550  0.96816500  1
  C  987  1  0.67467800  0.01528150  0.00667250  1
  C  988  1  0.70908500  0.02040500  0.03511600  1
  C  989  1  0.73880500  0.01553950  0.02547750  1
  C  1001  1  0.64962800  0.02622400  0.01807600  1
  C  1002  1  0.86001050  0.98587950  0.96417200  1
  C  1005  1  0.02727150  0.36300500  0.53392450  1
  C  1006  1  0.00921550  0.33658900  0.55207450  1
  C  1007  1  0.00766350  0.29912750  0.54556100  1
  C  1008  1  0.02419600  0.28729150  0.52081750  1
  C  1009  1  0.04373150  0.31423750  0.50331800  1
  C  1010  1  0.04502400  0.35191650  0.51010850  1
  C  1012  1  0.01897650  0.24745000  0.51272250  1
  C  1013  1  0.04214300  0.24191200  0.54190200  1
  C  1014  1  0.03682850  0.20196450  0.53172800  1
  C  1015  1  0.00891700  0.16749050  0.49320250  1
  C  1016  1  0.98550550  0.17342750  0.46480800  1
  C  1017  1  0.99028550  0.21279000  0.47448150  1
  C  1029  1  0.00837150  0.13098300  0.48177450  1
  C  1030  1  0.02188300  0.39523400  0.53581900  1
  C  1033  1  0.49379200  0.52743700  0.66406300  1
  C  1034  1  0.45748150  0.50908700  0.67224950  1
  C  1035  1  0.46232700  0.50729700  0.70806000  1
  C  1036  1  0.50360750  0.52397000  0.73653750  1
  C  1037  1  0.54074500  0.54382000  0.72930600  1
  C  1038  1  0.53535400  0.54529200  0.69299300  1
  C  1040  1  0.50641300  0.51865250  0.77111450  1
  C  1041  1  0.50008250  0.54154400  0.79971150  1
  C  1042  1  0.50494000  0.53619350  0.83432850  1
  C  1043  1  0.51577950  0.50845300  0.84096150  1
  C  1044  1  0.52111450  0.48534200  0.81172750  1
  C  1045  1  0.51623800  0.49016350  0.77716450  1
  C  1057  1  0.52671900  0.50795850  0.87694250  1
  C  1058  1  0.48673400  0.52245250  0.62657350  1
  C  1061  1  0.86356400  0.32900150  0.83625450  1
  C  1062  1  0.83723800  0.28441500  0.82785400  1
  C  1063  1  0.79976100  0.25345400  0.79195800  1
  C  1064  1  0.78781500  0.26636750  0.76363550  1
  C  1065  1  0.81467550  0.31083250  0.77107900  1
  C  1066  1  0.85236950  0.34173150  0.80745300  1
  C  1068  1  0.74795300  0.23459900  0.72903200  1
  C  1069  1  0.74243650  0.19993550  0.70027600  1
  C  1070  1  0.70247200  0.17015050  0.66565850  1
  C  1071  1  0.66795950  0.17414000  0.65916150  1
  C  1072  1  0.67387100  0.20841100  0.68855800  1
  C  1073  1  0.71324850  0.23810650  0.72312700  1
  C  1085  1  0.63146650  0.14910000  0.62319150  1
  C  1086  1  0.89577850  0.35931950  0.87388200  1
  H  9  1  0.87213150  0.93407550  0.00932400  1
  H  17  1  0.12862900  0.06550200  0.99077800  1
  H  19  1  0.02303650  0.09240400  0.98457950  1
  H  20  1  0.95603100  0.05773600  0.98899000  1
  H  21  1  0.04471950  0.94184800  0.01110750  1
  H  22  1  0.97773350  0.90719900  0.01554250  1
  H  35  1  0.92509300  0.36245950  0.49048550  1
  H  43  1  0.07600100  0.63768300  0.50949400  1
  H  45  1  0.10866850  0.53801950  0.51578600  1
  H  46  1  0.06933150  0.46653150  0.51120300  1
  H  47  1  0.93176900  0.53361450  0.48878750  1
  H  48  1  0.89243150  0.46212650  0.48419800  1
  H  61  1  0.43464050  0.42521450  0.56260000  1
  H  69  1  0.56643100  0.57492250  0.43753650  1
  H  71  1  0.59311350  0.60817200  0.56999850  1
  H  72  1  0.55836100  0.56916300  0.60233400  1
  H  73  1  0.44272250  0.43097300  0.39780150  1
  H  74  1  0.40796850  0.39196150  0.43013800  1
  H  87  1  0.86296750  0.37179000  0.93784050  1
  H  95  1  0.13799350  0.62828650  0.06244700  1
  H  97  1  0.03854100  0.52235100  0.93006400  1
  H  98  1  0.96711700  0.45535800  0.89784200  1
  H  99  1  0.03383900  0.54469900  0.10242600  1
  H  100  1  0.96240750  0.47773000  0.07020250  1
  H  113  1  0.62598050  0.13686050  0.54691400  1
  H  121  1  0.37510700  0.86327350  0.45292950  1
  H  123  1  0.49670650  0.97093800  0.57782050  1
  H  124  1  0.56130250  0.04212250  0.60205300  1
  H  125  1  0.43978550  0.95801850  0.39780300  1
  H  126  1  0.50437050  0.02920650  0.42203700  1
  H  139  1  0.59061550  0.57833850  0.95333800  1
  H  147  1  0.40993050  0.42133250  0.04650200  1
  H  149  1  0.39330500  0.41847800  0.92184000  1
  H  150  1  0.44053950  0.45884300  0.89780250  1
  H  151  1  0.56000500  0.54084800  0.10204500  1
  H  152  1  0.60723600  0.58121400  0.07800900  1
  H  165  1  0.07903400  0.12528650  0.48841550  1
  H  173  1  0.92198800  0.87481900  0.51166500  1
  H  175  1  0.91906700  0.99662250  0.52559950  1
  H  176  1  0.95946000  0.06110750  0.51886450  1
  H  177  1  0.04154150  0.93898550  0.48119100  1
  H  178  1  0.08194200  0.00347950  0.47446750  1
  H  191  1  0.63716750  0.09010200  0.01135150  1
  H  199  1  0.36357350  0.90993350  0.98838900  1
  H  201  1  0.47145600  0.89306100  0.97454700  1
  H  202  1  0.54264900  0.94015750  0.98119750  1
  H  203  1  0.45809500  0.05986900  0.01853700  1
  H  204  1  0.52929650  0.10697050  0.02521100  1
  H  423  1  0.68520350  0.61724150  0.99201600  1
  H  430  1  0.89928150  0.83914950  0.04788800  1
  H  431  1  0.78523250  0.79591100  0.95360750  1
  H  432  1  0.72838850  0.72040250  0.09713100  1
  H  433  1  0.74166900  0.74163200  0.97070500  1
  H  434  1  0.78164600  0.77140100  0.08296100  1
  H  443  1  0.67245750  0.63913950  0.07957300  1
  H  444  1  0.85591450  0.85320650  0.96309800  1
  H  451  1  0.62687050  0.19296450  0.50855000  1
  H  458  1  0.79159950  0.35204600  0.45248150  1
  H  459  1  0.84353500  0.33180950  0.54598650  1
  H  460  1  0.62415200  0.13132550  0.40285050  1
  H  461  1  0.77234500  0.27080600  0.52894600  1
  H  462  1  0.68918550  0.19879900  0.41690750  1
  H  471  1  0.56088300  0.09275200  0.42069100  1
  H  472  1  0.89063100  0.39417650  0.53715350  1
  H  479  1  0.11795750  0.12568150  0.43278300  1
  H  486  1  0.33966950  0.29162400  0.44031350  1
  H  487  1  0.29675000  0.34271200  0.51148700  1
  H  488  1  0.22107550  0.12351200  0.49244450  1
  H  489  1  0.24248550  0.27133050  0.50078700  1
  H  490  1  0.27207650  0.18870850  0.49022100  1
  H  499  1  0.13977100  0.05982700  0.46711500  1
  H  500  1  0.35374300  0.39041700  0.49777700  1
  H  507  1  0.69311800  0.18433300  0.06656500  1
  H  514  1  0.85235100  0.39936200  0.06082300  1
  H  515  1  0.83197100  0.28552600  0.98865800  1
  H  516  1  0.63160000  0.22848850  0.00765050  1
  H  517  1  0.77097550  0.24163850  0.99888600  1
  H  518  1  0.69908900  0.28182550  0.01005750  1
  H  527  1  0.59299600  0.17213400  0.03240400  1
  H  528  1  0.89432100  0.35665950  0.00382150  1
  H  535  1  0.31543900  0.38240950  0.00793850  1
  H  542  1  0.10151200  0.16040700  0.95219400  1
  H  543  1  0.21569200  0.20371050  0.04635450  1
  H  544  1  0.27213550  0.27927400  0.90274250  1
  H  545  1  0.25914650  0.25802300  0.02923550  1
  H  546  1  0.21896900  0.22825800  0.91697000  1
  H  555  1  0.32799450  0.36058750  0.92029400  1
  H  556  1  0.14515700  0.14635350  0.03688750  1
  H  563  1  0.37410750  0.80718050  0.49127200  1
  H  570  1  0.20950800  0.64811800  0.54745800  1
  H  571  1  0.15750500  0.66832650  0.45396250  1
  H  572  1  0.37694850  0.86881950  0.59704500  1
  H  573  1  0.22867850  0.72933150  0.47097200  1
  H  574  1  0.31192550  0.80135350  0.58301300  1
  H  583  1  0.44022950  0.90733200  0.57915250  1
  H  584  1  0.11044150  0.60596150  0.46280900  1
  H  591  1  0.88311500  0.87465700  0.56753800  1
  H  598  1  0.66119000  0.70848900  0.55959100  1
  H  599  1  0.70456350  0.65752100  0.48888950  1
  H  600  1  0.77989850  0.87646350  0.50740900  1
  H  601  1  0.75881200  0.72890950  0.49960050  1
  H  602  1  0.72892100  0.81129050  0.50967350  1
  H  611  1  0.86114800  0.94020650  0.53275050  1
  H  612  1  0.64726700  0.60969200  0.50226600  1
  H  619  1  0.30762150  0.81561200  0.93331250  1
  H  626  1  0.14881600  0.60084150  0.93969350  1
  H  627  1  0.16910050  0.71473950  0.01158900  1
  H  628  1  0.36935300  0.77172350  0.99239150  1
  H  629  1  0.22996650  0.75854100  0.00118450  1
  H  630  1  0.30194050  0.71842150  0.99011400  1
  H  639  1  0.40782150  0.82795050  0.96747900  1
  H  640  1  0.10707750  0.64375050  0.99689800  1
  H  871  1  0.12624550  0.93823300  0.99692050  1
  H  878  1  0.35444600  0.99884300  0.05260900  1
  H  879  1  0.28672050  0.97049550  0.93607800  1
  H  880  1  0.22522450  0.07357250  0.06800600  1
  H  881  1  0.23658350  0.97931500  0.95264950  1
  H  882  1  0.27805200  0.06542300  0.05709500  1
  H  891  1  0.14748900  0.03511450  0.06105250  1
  H  892  1  0.33774150  0.95153600  0.95424750  1
  H  899  1  0.94326800  0.62957050  0.50358750  1
  H  906  1  0.94578700  0.80102250  0.44744750  1
  H  907  1  0.03545050  0.85053350  0.56355300  1
  H  908  1  0.00611950  0.65711900  0.43144550  1
  H  909  1  0.02778900  0.78386100  0.54692700  1
  H  910  1  0.00826100  0.72049450  0.44218350  1
  H  919  1  0.97616100  0.58701150  0.43917250  1
  H  920  1  0.99761450  0.88298600  0.54563350  1
  H  927  1  0.43922800  0.44210650  0.31304250  1
  H  934  1  0.49802550  0.44502350  0.14416700  1
  H  935  1  0.47119950  0.53435850  0.18425900  1
  H  936  1  0.57422100  0.50502050  0.34828450  1
  H  937  1  0.48014650  0.52663150  0.24323600  1
  H  938  1  0.56558550  0.50724550  0.28707200  1
  H  947  1  0.53654100  0.47494900  0.38844800  1
  H  948  1  0.45144400  0.49669250  0.11401550  1
  H  955  1  0.12977250  0.62607950  0.18727300  1
  H  962  1  0.30182700  0.85406150  0.35522850  1
  H  963  1  0.35100250  0.78695100  0.31538750  1
  H  964  1  0.15718350  0.72519250  0.15119600  1
  H  965  1  0.28426950  0.73681950  0.25644200  1
  H  966  1  0.22087650  0.77803250  0.21218900  1
  H  975  1  0.08669150  0.64733500  0.11162550  1
  H  976  1  0.38363750  0.83760900  0.38554350  1
  H  983  1  0.87465100  0.06112450  0.00361150  1
  H  990  1  0.64683600  0.00205650  0.94725450  1
  H  991  1  0.71355000  0.02884000  0.06345600  1
  H  992  1  0.77502850  0.92613050  0.93139400  1
  H  993  1  0.76368300  0.01998100  0.04691500  1
  H  994  1  0.72234300  0.93465450  0.94211650  1
  H  1003  1  0.85289500  0.96392700  0.93914900  1
  H  1004  1  0.66306000  0.04857500  0.04544100  1
  H  1011  1  0.05778450  0.37052350  0.49642300  1
  H  1018  1  0.05518850  0.19906250  0.55259500  1
  H  1019  1  0.96556600  0.14955050  0.43647150  1
  H  1020  1  0.99489150  0.34298950  0.56853700  1
  H  1021  1  0.97322950  0.21622500  0.45308050  1
  H  1022  1  0.99272800  0.27960550  0.55780950  1
  H  1031  1  0.02484700  0.41307900  0.56080900  1
  H  1032  1  0.00338200  0.11709300  0.45441200  1
  H  1039  1  0.56189000  0.55832950  0.68728950  1
  H  1046  1  0.50214300  0.55432100  0.85549500  1
  H  1047  1  0.52972100  0.46556200  0.81572300  1
  H  1048  1  0.42671700  0.49473300  0.65146200  1
  H  1049  1  0.52085250  0.47333400  0.75677150  1
  H  1050  1  0.43509100  0.49221250  0.71254650  1
  H  1059  1  0.46478850  0.52551700  0.61172950  1
  H  1060  1  0.54905600  0.50291550  0.88582750  1
  H  1067  1  0.87090800  0.37403550  0.81332550  1
  H  1074  1  0.69959200  0.14643650  0.64435550  1
  H  1075  1  0.64996800  0.21283050  0.68466150  1
  H  1076  1  0.84370950  0.27434100  0.84854950  1
  H  1077  1  0.71666600  0.26290250  0.74365150  1
  H  1078  1  0.78030300  0.22166900  0.78735000  1
  H  1087  1  0.91363150  0.35220500  0.88880050  1
  H  1088  1  0.61762200  0.16261900  0.61431100  1
  N  23  1  0.90531250  0.89450550  0.01567500  1
  N  24  1  0.89055500  0.99825950  0.99649250  1
  N  25  1  0.11020700  0.00133450  0.00362050  1
  N  26  1  0.09544950  0.10509550  0.98443600  1
  N  49  1  0.87937850  0.38941750  0.48404700  1
  N  50  1  0.00215350  0.39359400  0.50349650  1
  N  51  1  0.99894150  0.60655000  0.49649550  1
  N  52  1  0.12171500  0.61072500  0.51591900  1
  N  75  1  0.39518100  0.37921900  0.48985900  1
  N  76  1  0.49885150  0.50223050  0.60834700  1
  N  77  1  0.50220000  0.49790700  0.39178300  1
  N  78  1  0.60590650  0.62091700  0.51027950  1
  N  101  1  0.88979850  0.40517050  0.01051200  1
  N  102  1  0.89416250  0.39002100  0.89198250  1
  N  103  1  0.10678700  0.61005900  0.10828800  1
  N  104  1  0.11114750  0.59492850  0.98974800  1
  N  127  1  0.58222950  0.10586200  0.47641950  1
  N  128  1  0.61870950  0.11164150  0.59915800  1
  N  129  1  0.38241000  0.88848800  0.40068900  1
  N  130  1  0.41882700  0.89429550  0.52344050  1
  N  153  1  0.62983350  0.60486000  0.02384450  1
  N  154  1  0.51316200  0.51906000  0.90092900  1
  N  155  1  0.48739000  0.48062050  0.09891450  1
  N  156  1  0.37071850  0.39481900  0.97598750  1
  N  179  1  0.10557700  0.08133000  0.47563300  1
  N  180  1  0.01965450  0.11825850  0.50650500  1
  N  181  1  0.98134400  0.88183350  0.49354550  1
  N  182  1  0.89544850  0.91876800  0.52446050  1
  N  205  1  0.60598900  0.12943100  0.02409300  1
  N  206  1  0.61211050  0.01267750  0.99337500  1
  N  207  1  0.38863150  0.98735250  0.00633200  1
  N  208  1  0.39477700  0.87061500  0.97573000  1
  N  435  1  0.74063050  0.66492200  0.96796750  1
  N  436  1  0.85982000  0.78114600  0.07387700  1
  N  463  1  0.69853650  0.27245300  0.53254350  1
  N  464  1  0.70774650  0.28623850  0.42661700  1
  N  491  1  0.16564200  0.19745700  0.42510100  1
  N  492  1  0.28166400  0.20762750  0.42176750  1
  N  519  1  0.77261650  0.23973500  0.07435550  1
  N  520  1  0.78656300  0.35951350  0.07891150  1
  N  547  1  0.26011450  0.33470700  0.03205250  1
  N  548  1  0.14084050  0.21844100  0.92619050  1
  N  575  1  0.30245250  0.72769850  0.46730600  1
  N  576  1  0.29334950  0.71392700  0.57328850  1
  N  603  1  0.83545950  0.80293300  0.57530050  1
  N  604  1  0.71914350  0.79248600  0.57811650  1
  N  631  1  0.22818400  0.76021850  0.92564450  1
  N  632  1  0.21446200  0.64058950  0.92142650  1
  N  883  1  0.17695000  0.91803050  0.97963450  1
  N  884  1  0.30410650  0.01007050  0.08009800  1
  N  911  1  0.93982350  0.69721900  0.52080950  1
  N  912  1  0.92952150  0.72318400  0.41994250  1
  N  939  1  0.41851550  0.43871600  0.24196950  1
  N  940  1  0.50927250  0.42869650  0.20570400  1
  N  967  1  0.19777200  0.67677800  0.25816900  1
  N  968  1  0.22395200  0.80367750  0.29371550  1
  N  995  1  0.82415750  0.08171550  0.02078700  1
  N  996  1  0.69726450  0.99091600  0.91982950  1
  N  1023  1  0.06120700  0.30286100  0.47921300  1
  N  1024  1  0.07145600  0.27690200  0.58008300  1
  N  1051  1  0.58232700  0.56145350  0.75826850  1
  N  1052  1  0.49092350  0.57065000  0.79396150  1
  N  1079  1  0.80319450  0.32356650  0.74227100  1
  N  1080  1  0.77746900  0.19681850  0.70588250  1
  O  437  1  0.88091750  0.81540200  0.10529750  1
  O  438  1  0.70560550  0.64631800  0.93803850  1
  O  439  1  0.75020500  0.63885800  0.96695700  1
  O  440  1  0.88518100  0.77216650  0.06910250  1
  O  465  1  0.71039550  0.27623350  0.39505700  1
  O  466  1  0.71008650  0.26723050  0.56233900  1
  O  467  1  0.67355200  0.28305350  0.53391450  1
  O  468  1  0.70338150  0.31628700  0.43178550  1
  O  493  1  0.31590900  0.21041850  0.43480450  1
  O  494  1  0.14710250  0.20879500  0.44161150  1
  O  495  1  0.13952450  0.17245350  0.38946600  1
  O  496  1  0.27258850  0.20345300  0.38743150  1
  O  521  1  0.77658600  0.38108100  0.06625300  1
  O  522  1  0.76734650  0.20469000  0.05759050  1
  O  523  1  0.78322850  0.24898700  0.10994650  1
  O  524  1  0.81662750  0.38439250  0.11331700  1
  O  549  1  0.11973700  0.18419450  0.89476250  1
  O  550  1  0.29517450  0.35331600  0.06194550  1
  O  551  1  0.25052250  0.36076300  0.03311150  1
  O  552  1  0.11546800  0.22738100  0.93101800  1
  O  577  1  0.29072100  0.72393950  0.60485650  1
  O  578  1  0.29087600  0.73292300  0.43752000  1
  O  579  1  0.32742750  0.71709050  0.46590000  1
  O  580  1  0.29771900  0.68388250  0.56811350  1
  O  605  1  0.68486800  0.78961150  0.56492050  1
  O  606  1  0.85410750  0.79163600  0.55892150  1
  O  607  1  0.86149450  0.82800700  0.61094250  1
  O  608  1  0.72810400  0.79670550  0.61245950  1
  O  633  1  0.22454400  0.61913650  0.93418550  1
  O  634  1  0.23342650  0.79526300  0.94234750  1
  O  635  1  0.21751650  0.75087450  0.89003400  1
  O  636  1  0.18435000  0.61559250  0.88704750  1
  O  885  1  0.33987800  0.04608800  0.10491200  1
  O  886  1  0.14892400  0.90214400  0.94538100  1
  O  887  1  0.16168400  0.89158900  0.99356900  1
  O  888  1  0.30070900  0.98067700  0.08936900  1
  O  913  1  0.94018700  0.73389850  0.39482750  1
  O  914  1  0.95871400  0.70378800  0.55507500  1
  O  915  1  0.89954950  0.66788350  0.50728000  1
  O  916  1  0.89091800  0.71052900  0.41112300  1
  O  941  1  0.54509350  0.43948150  0.20568600  1
  O  942  1  0.40309600  0.45754800  0.25430700  1
  O  943  1  0.39181600  0.39843000  0.23101900  1
  O  944  1  0.47956350  0.39008500  0.17974350  1
  O  969  1  0.23472950  0.83945650  0.29359500  1
  O  970  1  0.20414550  0.64890000  0.24592250  1
  O  971  1  0.16860450  0.66130750  0.26934400  1
  O  972  1  0.21135150  0.80007350  0.31972400  1
  O  997  1  0.66146000  0.95508650  0.89474850  1
  O  998  1  0.85185050  0.09711800  0.05506350  1
  O  999  1  0.83994900  0.10845750  0.00725050  1
  O  1000  1  0.70102400  0.02063200  0.91093000  1
  O  1025  1  0.06077700  0.26618950  0.60519350  1
  O  1026  1  0.04233200  0.29629550  0.44494450  1
  O  1027  1  0.10148600  0.33218950  0.49275050  1
  O  1028  1  0.11006150  0.28955500  0.58891750  1
  O  1053  1  0.45500350  0.55965700  0.79384550  1
  O  1054  1  0.59798500  0.54285950  0.74602950  1
  O  1055  1  0.60889700  0.60178450  0.76934250  1
  O  1056  1  0.52047750  0.60928300  0.81994750  1
  O  1081  1  0.76683050  0.16099550  0.70580400  1
  O  1082  1  0.79656600  0.35120200  0.75464500  1
  O  1083  1  0.83248450  0.33944850  0.73129600  1
  O  1084  1  0.79007850  0.20071150  0.67991700  1
