# generated using pymatgen
data_GdCuH12C18I(NO2)3
_symmetry_space_group_name_H-M   'P 1'
_cell_length_a   8.29980000
_cell_length_b   12.04215000
_cell_length_c   26.54360000
_cell_angle_alpha   90.00000000
_cell_angle_beta   90.00000000
_cell_angle_gamma   104.87945000
_symmetry_Int_Tables_number   1
_chemical_formula_structural   GdCuH12C18I(NO2)3
_chemical_formula_sum   'Gd4 Cu4 H48 C72 I4 N12 O24'
_cell_volume   2564.00620374
_cell_formula_units_Z   4
loop_
 _symmetry_equiv_pos_site_id
 _symmetry_equiv_pos_as_xyz
  1  'x, y, z'
loop_
 _atom_site_type_symbol
 _atom_site_label
 _atom_site_symmetry_multiplicity
 _atom_site_fract_x
 _atom_site_fract_y
 _atom_site_fract_z
 _atom_site_occupancy
  Gd  Gd1  1  0.78151000  0.51890000  0.51300000  1.0
  Gd  Gd2  1  0.21849000  0.48110000  0.01300000  1.0
  Gd  Gd3  1  0.21849000  0.48110000  0.48700000  1.0
  Gd  Gd4  1  0.78151000  0.51890000  0.98700000  1.0
  Cu  Cu1  1  0.08662000  0.01039000  0.70058000  1.0
  Cu  Cu2  1  0.91338000  0.98960000  0.20058000  1.0
  Cu  Cu3  1  0.91338000  0.98960000  0.29942000  1.0
  Cu  Cu4  1  0.08662000  0.01039000  0.79942000  1.0
  H  H1  1  0.99898000  0.81782000  0.62775000  1.0
  H  H2  1  0.43780000  0.69437000  0.60586000  1.0
  H  H3  1  0.58966000  0.84880000  0.66639000  1.0
  H  H4  1  0.43174000  0.98240000  0.70265000  1.0
  H  H5  1  0.15371000  0.18551000  0.61759000  1.0
  H  H6  1  0.71036000  0.30719000  0.60240000  1.0
  H  H7  1  0.58046000  0.16906000  0.67146000  1.0
  H  H8  1  0.74606000  0.04020000  0.70727000  1.0
  H  H9  1  0.22483000  0.19971000  0.43598000  1.0
  H  H10  1  0.50697000  0.14753000  0.56594000  1.0
  H  H11  1  0.35749000  0.93814000  0.56183000  1.0
  H  H12  1  0.14388000  0.87152000  0.49456000  1.0
  H  H13  1  0.00102000  0.18218000  0.12775000  1.0
  H  H14  1  0.56220000  0.30562000  0.10586000  1.0
  H  H15  1  0.41034000  0.15120000  0.16639000  1.0
  H  H16  1  0.56825000  0.01759000  0.20265000  1.0
  H  H17  1  0.84629000  0.81449000  0.11759000  1.0
  H  H18  1  0.28964000  0.69281000  0.10240000  1.0
  H  H19  1  0.41954000  0.83094000  0.17146000  1.0
  H  H20  1  0.25394000  0.95980000  0.20727000  1.0
  H  H21  1  0.77517000  0.80029000  0.93598000  1.0
  H  H22  1  0.49303000  0.85246000  0.06594000  1.0
  H  H23  1  0.64251000  0.06186000  0.06184000  1.0
  H  H24  1  0.85612000  0.12847000  0.99456000  1.0
  H  H25  1  0.00102000  0.18218000  0.37225000  1.0
  H  H26  1  0.56220000  0.30562000  0.39414000  1.0
  H  H27  1  0.41034000  0.15120000  0.33361000  1.0
  H  H28  1  0.56826000  0.01759000  0.29735000  1.0
  H  H29  1  0.84629000  0.81449000  0.38241000  1.0
  H  H30  1  0.28964000  0.69281000  0.39760000  1.0
  H  H31  1  0.41954000  0.83094000  0.32854000  1.0
  H  H32  1  0.25394000  0.95980000  0.29273000  1.0
  H  H33  1  0.77517000  0.80029000  0.56402000  1.0
  H  H34  1  0.49303000  0.85246000  0.43406000  1.0
  H  H35  1  0.64251000  0.06186000  0.43816000  1.0
  H  H36  1  0.85612000  0.12847000  0.50544000  1.0
  H  H37  1  0.99898000  0.81782000  0.87225000  1.0
  H  H38  1  0.43780000  0.69437000  0.89414000  1.0
  H  H39  1  0.58966000  0.84880000  0.83361000  1.0
  H  H40  1  0.43175000  0.98240000  0.79735000  1.0
  H  H41  1  0.15371000  0.18551000  0.88241000  1.0
  H  H42  1  0.71036000  0.30718000  0.89760000  1.0
  H  H43  1  0.58045000  0.16905000  0.82854000  1.0
  H  H44  1  0.74606000  0.04019000  0.79273000  1.0
  H  H45  1  0.22483000  0.19971000  0.06402000  1.0
  H  H46  1  0.50697000  0.14753000  0.93406000  1.0
  H  H47  1  0.35749000  0.93814000  0.93816000  1.0
  H  H48  1  0.14388000  0.87152000  0.00544000  1.0
  C  C1  1  0.12933000  0.82206000  0.63519000  1.0
  C  C2  1  0.20760000  0.74521000  0.61245000  1.0
  C  C3  1  0.37594000  0.75385000  0.62345000  1.0
  C  C4  1  0.45936000  0.83928000  0.65639000  1.0
  C  C5  1  0.37260000  0.91324000  0.67705000  1.0
  C  C6  1  0.11969000  0.65695000  0.57540000  1.0
  C  C7  1  0.02645000  0.18313000  0.62842000  1.0
  C  C8  1  0.94252000  0.25705000  0.60562000  1.0
  C  C9  1  0.77895000  0.25245000  0.62049000  1.0
  C  C10  1  0.70618000  0.17451000  0.65781000  1.0
  C  C11  1  0.79764000  0.10356000  0.67839000  1.0
  C  C12  1  0.02602000  0.33763000  0.56574000  1.0
  C  C13  1  0.25638000  0.14339000  0.46437000  1.0
  C  C14  1  0.37627000  0.18963000  0.50125000  1.0
  C  C15  1  0.41367000  0.11482000  0.53719000  1.0
  C  C16  1  0.33010000  0.99896000  0.53501000  1.0
  C  C17  1  0.21165000  0.96184000  0.49715000  1.0
  C  C18  1  0.45871000  0.31453000  0.50231000  1.0
  C  C19  1  0.87067000  0.17794000  0.13519000  1.0
  C  C20  1  0.79240000  0.25479000  0.11245000  1.0
  C  C21  1  0.62406000  0.24615000  0.12345000  1.0
  C  C22  1  0.54064000  0.16072000  0.15639000  1.0
  C  C23  1  0.62740000  0.08676000  0.17705000  1.0
  C  C24  1  0.88031000  0.34305000  0.07540000  1.0
  C  C25  1  0.97355000  0.81686000  0.12842000  1.0
  C  C26  1  0.05748000  0.74295000  0.10562000  1.0
  C  C27  1  0.22105000  0.74755000  0.12049000  1.0
  C  C28  1  0.29382000  0.82548000  0.15781000  1.0
  C  C29  1  0.20236000  0.89644000  0.17839000  1.0
  C  C30  1  0.97398000  0.66237000  0.06574000  1.0
  C  C31  1  0.74362000  0.85661000  0.96437000  1.0
  C  C32  1  0.62373000  0.81036000  0.00125000  1.0
  C  C33  1  0.58633000  0.88518000  0.03719000  1.0
  C  C34  1  0.66990000  0.00103000  0.03501000  1.0
  C  C35  1  0.78835000  0.03816000  0.99715000  1.0
  C  C36  1  0.54129000  0.68546000  0.00231000  1.0
  C  C37  1  0.87067000  0.17794000  0.36481000  1.0
  C  C38  1  0.79240000  0.25479000  0.38755000  1.0
  C  C39  1  0.62406000  0.24615000  0.37655000  1.0
  C  C40  1  0.54064000  0.16072000  0.34361000  1.0
  C  C41  1  0.62740000  0.08676000  0.32295000  1.0
  C  C42  1  0.88031000  0.34305000  0.42460000  1.0
  C  C43  1  0.97355000  0.81686000  0.37158000  1.0
  C  C44  1  0.05748000  0.74295000  0.39438000  1.0
  C  C45  1  0.22105000  0.74755000  0.37951000  1.0
  C  C46  1  0.29382000  0.82548000  0.34219000  1.0
  C  C47  1  0.20236000  0.89644000  0.32161000  1.0
  C  C48  1  0.97398000  0.66237000  0.43426000  1.0
  C  C49  1  0.74362000  0.85661000  0.53563000  1.0
  C  C50  1  0.62373000  0.81036000  0.49875000  1.0
  C  C51  1  0.58633000  0.88518000  0.46281000  1.0
  C  C52  1  0.66990000  0.00103000  0.46499000  1.0
  C  C53  1  0.78835000  0.03816000  0.50285000  1.0
  C  C54  1  0.54129000  0.68547000  0.49769000  1.0
  C  C55  1  0.12933000  0.82206000  0.86481000  1.0
  C  C56  1  0.20760000  0.74521000  0.88755000  1.0
  C  C57  1  0.37594000  0.75385000  0.87655000  1.0
  C  C58  1  0.45936000  0.83928000  0.84361000  1.0
  C  C59  1  0.37260000  0.91324000  0.82295000  1.0
  C  C60  1  0.11969000  0.65695000  0.92460000  1.0
  C  C61  1  0.02645000  0.18313000  0.87158000  1.0
  C  C62  1  0.94252000  0.25705000  0.89438000  1.0
  C  C63  1  0.77895000  0.25245000  0.87951000  1.0
  C  C64  1  0.70617000  0.17451000  0.84219000  1.0
  C  C65  1  0.79764000  0.10356000  0.82161000  1.0
  C  C66  1  0.02601000  0.33763000  0.93426000  1.0
  C  C67  1  0.25638000  0.14339000  0.03563000  1.0
  C  C68  1  0.37627000  0.18963000  0.99875000  1.0
  C  C69  1  0.41367000  0.11482000  0.96281000  1.0
  C  C70  1  0.33010000  0.99897000  0.96499000  1.0
  C  C71  1  0.21165000  0.96184000  0.00285000  1.0
  C  C72  1  0.45871000  0.31453000  0.99769000  1.0
  I  I1  1  0.84934000  0.84673000  0.75000000  1.0
  I  I2  1  0.31915000  0.17191000  0.75000000  1.0
  I  I3  1  0.15066000  0.15327000  0.25000000  1.0
  I  I4  1  0.68085000  0.82808000  0.25000000  1.0
  N  N1  1  0.21014000  0.90590000  0.66686000  1.0
  N  N2  1  0.95573000  0.10668000  0.66429000  1.0
  N  N3  1  0.17470000  0.03183000  0.46185000  1.0
  N  N4  1  0.78985000  0.09410000  0.16687000  1.0
  N  N5  1  0.04427000  0.89332000  0.16429000  1.0
  N  N6  1  0.82529000  0.96817000  0.96185000  1.0
  N  N7  1  0.78986000  0.09410000  0.33313000  1.0
  N  N8  1  0.04427000  0.89332000  0.33571000  1.0
  N  N9  1  0.82530000  0.96817000  0.53815000  1.0
  N  N10  1  0.21015000  0.90590000  0.83313000  1.0
  N  N11  1  0.95573000  0.10668000  0.83571000  1.0
  N  N12  1  0.17471000  0.03183000  0.03815000  1.0
  O  O1  1  0.96427000  0.64472000  0.56666000  1.0
  O  O2  1  0.20964000  0.59957000  0.55413000  1.0
  O  O3  1  0.94434000  0.40056000  0.54283000  1.0
  O  O4  1  0.17588000  0.34350000  0.55346000  1.0
  O  O5  1  0.57198000  0.35326000  0.53492000  1.0
  O  O6  1  0.41366000  0.38041000  0.46990000  1.0
  O  O7  1  0.03573000  0.35528000  0.06666000  1.0
  O  O8  1  0.79036000  0.40043000  0.05413000  1.0
  O  O9  1  0.05566000  0.59943000  0.04283000  1.0
  O  O10  1  0.82413000  0.65649000  0.05346000  1.0
  O  O11  1  0.42802000  0.64674000  0.03492000  1.0
  O  O12  1  0.58634000  0.61959000  0.96990000  1.0
  O  O13  1  0.03573000  0.35528000  0.43334000  1.0
  O  O14  1  0.79036000  0.40043000  0.44587000  1.0
  O  O15  1  0.05566000  0.59943000  0.45717000  1.0
  O  O16  1  0.82412000  0.65649000  0.44654000  1.0
  O  O17  1  0.42802000  0.64674000  0.46508000  1.0
  O  O18  1  0.58634000  0.61959000  0.53010000  1.0
  O  O19  1  0.96427000  0.64472000  0.93334000  1.0
  O  O20  1  0.20964000  0.59957000  0.94587000  1.0
  O  O21  1  0.94434000  0.40056000  0.95717000  1.0
  O  O22  1  0.17587000  0.34350000  0.94654000  1.0
  O  O23  1  0.57198000  0.35326000  0.96507000  1.0
  O  O24  1  0.41366000  0.38041000  0.03010000  1.0
