# generated using pymatgen
data_Cu2H8C11N4O7
_symmetry_space_group_name_H-M   'P 1'
_cell_length_a   7.84945000
_cell_length_b   13.84967000
_cell_length_c   16.19121000
_cell_angle_alpha   90.00000000
_cell_angle_beta   99.32940000
_cell_angle_gamma   90.00000000
_symmetry_Int_Tables_number   1
_chemical_formula_structural   Cu2H8C11N4O7
_chemical_formula_sum   'Cu8 H32 C44 N16 O28'
_cell_volume   1736.90101169
_cell_formula_units_Z   4
loop_
 _symmetry_equiv_pos_site_id
 _symmetry_equiv_pos_as_xyz
  1  'x, y, z'
loop_
 _atom_site_type_symbol
 _atom_site_label
 _atom_site_symmetry_multiplicity
 _atom_site_fract_x
 _atom_site_fract_y
 _atom_site_fract_z
 _atom_site_occupancy
  Cu  Cu0  1  0.82375000  0.39895000  0.55505000  1
  Cu  Cu1  1  0.47489000  0.45502000  0.41351000  1
  Cu  Cu2  1  0.67625000  0.89895000  0.94494000  1
  Cu  Cu3  1  0.02511000  0.95502000  0.08649000  1
  Cu  Cu4  1  0.17625000  0.60105000  0.44495000  1
  Cu  Cu5  1  0.52511000  0.54498000  0.58649000  1
  Cu  Cu6  1  0.32375000  0.10105000  0.05505000  1
  Cu  Cu7  1  0.97489000  0.04498000  0.91351000  1
  H  H8  1  0.73464000  0.55629000  0.47672000  1
  H  H9  1  0.22961000  0.54069000  0.70903000  1
  H  H10  1  0.80650000  0.11301000  0.27656000  1
  H  H11  1  0.62430000  0.07334000  0.30370000  1
  H  H12  1  0.43901000  0.63645000  0.80919000  1
  H  H13  1  0.82111000  0.72987000  0.75491000  1
  H  H14  1  0.46336000  0.23995000  0.30480000  1
  H  H15  1  0.95772000  0.20212000  0.45095000  1
  H  H16  1  0.76535000  0.05629000  0.02328000  1
  H  H17  1  0.27039000  0.04069000  0.79096000  1
  H  H18  1  0.69349000  0.61301000  0.22344000  1
  H  H19  1  0.87569000  0.57334000  0.19630000  1
  H  H20  1  0.06098000  0.13645000  0.69081000  1
  H  H21  1  0.67889000  0.22987000  0.74509000  1
  H  H22  1  0.03664000  0.73995000  0.19520000  1
  H  H23  1  0.54228000  0.70213000  0.04905000  1
  H  H24  1  0.26535000  0.44371000  0.52328000  1
  H  H25  1  0.77039000  0.45931000  0.29096000  1
  H  H26  1  0.19349000  0.88700000  0.72344000  1
  H  H27  1  0.37569000  0.92666000  0.69630000  1
  H  H28  1  0.56098000  0.36355000  0.19081000  1
  H  H29  1  0.17889000  0.27013000  0.24509000  1
  H  H30  1  0.53664000  0.76005000  0.69520000  1
  H  H31  1  0.04228000  0.79788000  0.54904000  1
  H  H32  1  0.23465000  0.94371000  0.97672000  1
  H  H33  1  0.72961000  0.95931000  0.20904000  1
  H  H34  1  0.30651000  0.38700000  0.77656000  1
  H  H35  1  0.12431000  0.42666000  0.80370000  1
  H  H36  1  0.93901000  0.86355000  0.30919000  1
  H  H37  1  0.32111000  0.77014000  0.25491000  1
  H  H38  1  0.96335000  0.26005000  0.80480000  1
  H  H39  1  0.45772000  0.29788000  0.95095000  1
  C  C40  1  0.88268000  0.56988000  0.66891000  1
  C  C41  1  0.01141000  0.62902000  0.72598000  1
  C  C42  1  0.18622000  0.60258000  0.74144000  1
  C  C43  1  0.30359000  0.65732000  0.79614000  1
  C  C44  1  0.25031000  0.74055000  0.83452000  1
  C  C45  1  0.37897000  0.79939000  0.89261000  1
  C  C46  1  0.07491000  0.76731000  0.81820000  1
  C  C47  1  0.00434000  0.85495000  0.85587000  1
  C  C48  1  0.95707000  0.71071000  0.76523000  1
  C  C49  1  0.57691000  0.25134000  0.35138000  1
  C  C50  1  0.83268000  0.23223000  0.42633000  1
  C  C51  1  0.61732000  0.06988000  0.83109000  1
  C  C52  1  0.48859000  0.12902000  0.77402000  1
  C  C53  1  0.31378000  0.10258000  0.75856000  1
  C  C54  1  0.19640000  0.15732000  0.70386000  1
  C  C55  1  0.24969000  0.24055000  0.66548000  1
  C  C56  1  0.12103000  0.29939000  0.60739000  1
  C  C57  1  0.42509000  0.26731000  0.68180000  1
  C  C58  1  0.49566000  0.35495000  0.64413000  1
  C  C59  1  0.54292000  0.21071000  0.73476000  1
  C  C60  1  0.92309000  0.75134000  0.14862000  1
  C  C61  1  0.66731000  0.73223000  0.07367000  1
  C  C62  1  0.11732000  0.43012000  0.33109000  1
  C  C63  1  0.98859000  0.37098000  0.27402000  1
  C  C64  1  0.81378000  0.39742000  0.25856000  1
  C  C65  1  0.69640000  0.34269000  0.20386000  1
  C  C66  1  0.74968000  0.25945000  0.16548000  1
  C  C67  1  0.62103000  0.20061000  0.10739000  1
  C  C68  1  0.92509000  0.23269000  0.18180000  1
  C  C69  1  0.99566000  0.14505000  0.14413000  1
  C  C70  1  0.04292000  0.28929000  0.23476000  1
  C  C71  1  0.42309000  0.74866000  0.64862000  1
  C  C72  1  0.16731000  0.76777000  0.57367000  1
  C  C73  1  0.38268000  0.93012000  0.16891000  1
  C  C74  1  0.51141000  0.87098000  0.22598000  1
  C  C75  1  0.68622000  0.89742000  0.24144000  1
  C  C76  1  0.80359000  0.84269000  0.29614000  1
  C  C77  1  0.75031000  0.75945000  0.33452000  1
  C  C78  1  0.87897000  0.70061000  0.39261000  1
  C  C79  1  0.57490000  0.73269000  0.31820000  1
  C  C80  1  0.50434000  0.64505000  0.35587000  1
  C  C81  1  0.45707000  0.78929000  0.26524000  1
  C  C82  1  0.07691000  0.24866000  0.85138000  1
  C  C83  1  0.33269000  0.26777000  0.92633000  1
  N  N84  1  0.76724000  0.31369000  0.44987000  1
  N  N85  1  0.60550000  0.32506000  0.40367000  1
  N  N86  1  0.71702000  0.19119000  0.36416000  1
  N  N87  1  0.74260000  0.10208000  0.32656000  1
  N  N88  1  0.73275000  0.81369000  0.05013000  1
  N  N89  1  0.89450000  0.82506000  0.09633000  1
  N  N90  1  0.78298000  0.69119000  0.13584000  1
  N  N91  1  0.75739000  0.60208000  0.17344000  1
  N  N92  1  0.23275000  0.68631000  0.55013000  1
  N  N93  1  0.39450000  0.67494000  0.59633000  1
  N  N94  1  0.28298000  0.80881000  0.63584000  1
  N  N95  1  0.25739000  0.89792000  0.67344000  1
  N  N96  1  0.26724000  0.18631000  0.94987000  1
  N  N97  1  0.10550000  0.17494000  0.90367000  1
  N  N98  1  0.21702000  0.30881000  0.86416000  1
  N  N99  1  0.24260000  0.39792000  0.82656000  1
  O  O100  1  0.67165000  0.50055000  0.49661000  1
  O  O101  1  0.72607000  0.59958000  0.65885000  1
  O  O102  1  0.94155000  0.49538000  0.63735000  1
  O  O103  1  0.90751000  0.83777000  0.90878000  1
  O  O104  1  0.04161000  0.93825000  0.82898000  1
  O  O105  1  0.33401000  0.84261000  0.95405000  1
  O  O106  1  0.53394000  0.80002000  0.87546000  1
  O  O107  1  0.82835000  0.00055000  0.00339000  1
  O  O108  1  0.77392000  0.09957000  0.84114000  1
  O  O109  1  0.55845000  0.99538000  0.86265000  1
  O  O110  1  0.59248000  0.33777000  0.59122000  1
  O  O111  1  0.45839000  0.43825000  0.67102000  1
  O  O112  1  0.16599000  0.34261000  0.54595000  1
  O  O113  1  0.96605000  0.30002000  0.62454000  1
  O  O114  1  0.32835000  0.49946000  0.50339000  1
  O  O115  1  0.27392000  0.40043000  0.34114000  1
  O  O116  1  0.05845000  0.50462000  0.36265000  1
  O  O117  1  0.09248000  0.16223000  0.09122000  1
  O  O118  1  0.95839000  0.06175000  0.17102000  1
  O  O119  1  0.66599000  0.15739000  0.04595000  1
  O  O120  1  0.46606000  0.19998000  0.12454000  1
  O  O121  1  0.17165000  0.99946000  0.99661000  1
  O  O122  1  0.22607000  0.90043000  0.15886000  1
  O  O123  1  0.44155000  0.00462000  0.13735000  1
  O  O124  1  0.40751000  0.66223000  0.40878000  1
  O  O125  1  0.54161000  0.56175000  0.32898000  1
  O  O126  1  0.83401000  0.65739000  0.45405000  1
  O  O127  1  0.03394000  0.69998000  0.37546000  1
