# generated using pymatgen
data_H32C49N8
_symmetry_space_group_name_H-M   'P 1'
_cell_length_a   33.26060000
_cell_length_b   45.20180000
_cell_length_c   45.20180000
_cell_angle_alpha   90.00000000
_cell_angle_beta   90.00000000
_cell_angle_gamma   90.00000000
_symmetry_Int_Tables_number   1
_chemical_formula_structural   H32C49N8
_chemical_formula_sum   'H128 C196 N32'
_cell_volume   67958.14849660
_cell_formula_units_Z   4
loop_
 _symmetry_equiv_pos_site_id
 _symmetry_equiv_pos_as_xyz
  1  'x, y, z'
loop_
 _atom_site_type_symbol
 _atom_site_label
 _atom_site_symmetry_multiplicity
 _atom_site_fract_x
 _atom_site_fract_y
 _atom_site_fract_z
 _atom_site_occupancy
  H  26  1  0.91938700  0.93273700  0.38796900  1
  H  27  1  0.96889300  0.94171700  0.35118100  1
  H  28  1  0.90285100  0.02459900  0.39854400  1
  H  29  1  0.95170800  0.03376000  0.36127800  1
  H  30  1  0.02800500  0.05139700  0.34669400  1
  H  31  1  0.07943400  0.06288100  0.38156700  1
  H  32  1  0.09351400  0.97215400  0.40036700  1
  H  33  1  0.04302200  0.96042200  0.36510700  1
  H  34  1  0.07362800  0.97746700  0.30929700  1
  H  35  1  0.09150200  0.94028100  0.27494900  1
  H  36  1  0.96920300  0.92099200  0.26061300  1
  H  37  1  0.95085400  0.95798200  0.29582700  1
  H  38  1  0.92316400  0.01198800  0.30651900  1
  H  39  1  0.04632900  0.03084800  0.29386700  1
  H  40  1  0.02934400  0.06347400  0.25437700  1
  H  45  1  0.90653400  0.04450000  0.26746500  1
  H  71  1  0.41408700  0.06188000  0.61283800  1
  H  72  1  0.46540900  0.05437200  0.64856300  1
  H  73  1  0.40045800  0.96959800  0.60383400  1
  H  74  1  0.45125400  0.96190000  0.64002500  1
  H  75  1  0.52924700  0.94650200  0.65135000  1
  H  76  1  0.57981500  0.93628800  0.61547500  1
  H  77  1  0.58891500  0.02730200  0.59635000  1
  H  78  1  0.53927700  0.03777800  0.63264100  1
  H  79  1  0.57375900  0.02189300  0.68733300  1
  H  80  1  0.59168800  0.05940100  0.72130500  1
  H  81  1  0.46942300  0.07516600  0.73958500  1
  H  82  1  0.45097500  0.03782400  0.70478400  1
  H  83  1  0.42599000  0.98273300  0.69567600  1
  H  84  1  0.55095500  0.96795500  0.70331000  1
  H  85  1  0.53897400  0.93476600  0.74330200  1
  H  90  1  0.41434000  0.94963500  0.73535300  1
  H  116  1  0.16542500  0.61379800  0.93435400  1
  H  117  1  0.21649900  0.64951600  0.94275900  1
  H  118  1  0.15070100  0.60332800  0.02638900  1
  H  119  1  0.20121500  0.63954300  0.03499100  1
  H  120  1  0.27886100  0.65129200  0.05123400  1
  H  121  1  0.32931700  0.61533400  0.06146800  1
  H  122  1  0.33980700  0.59720600  0.97033500  1
  H  123  1  0.29027800  0.63358500  0.95984400  1
  H  124  1  0.32404100  0.68823600  0.97646100  1
  H  125  1  0.34212200  0.72251800  0.93926100  1
  H  126  1  0.21990100  0.74053000  0.92300900  1
  H  127  1  0.20131000  0.70541200  0.96001700  1
  H  128  1  0.17558400  0.69529300  0.01477800  1
  H  129  1  0.30023900  0.70366600  0.03047300  1
  H  130  1  0.28731700  0.74320700  0.06400800  1
  H  135  1  0.16298200  0.73449700  0.04822900  1
  H  161  1  0.66454500  0.38462000  0.06233000  1
  H  162  1  0.71613500  0.34927600  0.05399300  1
  H  163  1  0.64966600  0.39479400  0.97027500  1
  H  164  1  0.70071100  0.35897200  0.96174200  1
  H  165  1  0.77874400  0.34783600  0.94549300  1
  H  166  1  0.82905800  0.38392000  0.93527000  1
  H  167  1  0.83890500  0.40245300  0.02636200  1
  H  168  1  0.78957300  0.36594800  0.03684900  1
  H  169  1  0.82453900  0.31154500  0.01991600  1
  H  170  1  0.84359500  0.27721700  0.05677400  1
  H  171  1  0.72184400  0.25816900  0.07378000  1
  H  172  1  0.70226900  0.29330000  0.03707900  1
  H  173  1  0.67596100  0.30299000  0.98233700  1
  H  174  1  0.80065200  0.29581100  0.96615800  1
  H  175  1  0.78819600  0.25605800  0.93277700  1
  H  180  1  0.66383600  0.26357400  0.94904400  1
  H  193  1  0.90051200  0.07587900  0.16056600  1
  H  194  1  0.89144100  0.16887000  0.21265200  1
  H  195  1  0.92030400  0.12727700  0.23734000  1
  H  196  1  0.85330900  0.24272300  0.16319900  1
  H  197  1  0.81707100  0.18814600  0.09207100  1
  H  198  1  0.84161100  0.14615900  0.11841000  1
  H  201  1  0.92623900  0.05280400  0.20589000  1
  H  202  1  0.83661100  0.26373300  0.11291800  1
  H  215  1  0.39632400  0.92235700  0.83419900  1
  H  216  1  0.41114400  0.82557800  0.79047700  1
  H  217  1  0.44622700  0.86620600  0.76898000  1
  H  218  1  0.36054000  0.75406500  0.83616300  1
  H  219  1  0.30488900  0.81095400  0.89812800  1
  H  220  1  0.33248300  0.85228900  0.87250700  1
  H  223  1  0.43388500  0.94332500  0.79206100  1
  H  224  1  0.33185500  0.73398800  0.88208000  1
  H  237  1  0.14431900  0.83349500  0.07645800  1
  H  238  1  0.15954400  0.78979400  0.17321500  1
  H  239  1  0.19404200  0.76805300  0.13243200  1
  H  240  1  0.11018200  0.83596000  0.24492600  1
  H  241  1  0.05433300  0.89796000  0.18818900  1
  H  242  1  0.08131900  0.87212700  0.14676100  1
  H  245  1  0.18156500  0.79125600  0.05532100  1
  H  246  1  0.08268900  0.88251300  0.26482100  1
  H  259  1  0.64583900  0.16481500  0.92109400  1
  H  260  1  0.66012600  0.20842900  0.82422400  1
  H  261  1  0.69507100  0.23017200  0.86478800  1
  H  262  1  0.60955900  0.16254900  0.75283700  1
  H  263  1  0.55478500  0.10026400  0.80982600  1
  H  264  1  0.58232200  0.12601100  0.85111400  1
  H  267  1  0.68341200  0.20696900  0.94200000  1
  H  268  1  0.58156700  0.11629900  0.73289500  1
  H  281  1  0.63204500  0.98360400  0.49842300  1
  H  282  1  0.75778800  0.96908500  0.54970100  1
  H  283  1  0.69747000  0.97297400  0.57789500  1
  H  284  1  0.86318900  0.98027700  0.50010200  1
  H  285  1  0.79811500  0.98174800  0.41979300  1
  H  286  1  0.73717200  0.97625100  0.44725200  1
  H  289  1  0.60233700  0.99693400  0.54791200  1
  H  290  1  0.89608600  0.99387600  0.45286700  1
  H  303  1  0.12997200  0.01772500  0.49904400  1
  H  304  1  0.25819900  0.02962700  0.45052600  1
  H  305  1  0.19889200  0.02724300  0.42103200  1
  H  306  1  0.36092800  0.01454900  0.50221700  1
  H  307  1  0.29252800  0.01318200  0.58101000  1
  H  308  1  0.23313700  0.02134800  0.55239600  1
  H  311  1  0.10141300  0.00543500  0.44947800  1
  H  312  1  0.39093100  0.99857300  0.54987000  1
  H  325  1  0.87965600  0.50100900  0.98140800  1
  H  326  1  0.00689900  0.45079600  0.97067600  1
  H  327  1  0.94697500  0.42203600  0.97387200  1
  H  328  1  0.11071300  0.50181000  0.98385200  1
  H  329  1  0.04415400  0.58141900  0.98083000  1
  H  330  1  0.98404600  0.55313500  0.97457800  1
  H  333  1  0.85067500  0.45138200  0.99554900  1
  H  334  1  0.14227400  0.54987400  0.99661500  1
  H  347  1  0.37925300  0.49825700  0.01434500  1
  H  348  1  0.50671300  0.54750900  0.02770200  1
  H  349  1  0.44718900  0.57666900  0.02433600  1
  H  350  1  0.61032800  0.49625000  0.01485700  1
  H  351  1  0.54287600  0.41700100  0.01418500  1
  H  352  1  0.48292500  0.44541800  0.02067300  1
  H  355  1  0.35076900  0.54809300  0.00123700  1
  H  356  1  0.64140100  0.44862100  0.00056900  1
  C  1  1  0.96640400  0.05714600  0.25725300  1
  C  2  1  0.00672800  0.05329400  0.26587900  1
  C  3  1  0.01655600  0.03416100  0.28934900  1
  C  4  1  0.98658400  0.01925200  0.30614500  1
  C  5  1  0.94613400  0.02346300  0.29687100  1
  C  6  1  0.93611300  0.04225500  0.27327000  1
  C  7  1  0.99807200  0.99574100  0.32894700  1
  C  8  1  0.01019000  0.97024900  0.30853600  1
  C  9  1  0.98075100  0.95387500  0.29259000  1
  C  10  1  0.99134900  0.93211300  0.27172400  1
  C  11  1  0.03206000  0.92594300  0.26592700  1
  C  12  1  0.06179500  0.94296700  0.28022100  1
  C  13  1  0.05096500  0.96484400  0.30075800  1
  C  14  1  0.03136400  0.00445200  0.35061600  1
  C  15  1  0.96423900  0.98877000  0.35075600  1
  C  16  1  0.95427800  0.95957400  0.35986200  1
  C  17  1  0.92544500  0.95411900  0.38197400  1
  C  18  1  0.90650400  0.97774600  0.39670800  1
  C  19  1  0.91618800  0.00696300  0.38829900  1
  C  20  1  0.94479900  0.01224300  0.36607800  1
  C  21  1  0.04216900  0.03421600  0.35699000  1
  C  22  1  0.07206600  0.04120100  0.37792500  1
  C  23  1  0.09086200  0.01864700  0.39434700  1
  C  24  1  0.07988600  0.98900200  0.38904000  1
  C  25  1  0.05031300  0.98220800  0.36798500  1
  C  46  1  0.47561000  0.93910800  0.74302600  1
  C  47  1  0.51494500  0.94425400  0.73280200  1
  C  48  1  0.52179400  0.96369600  0.70903400  1
  C  49  1  0.48971400  0.97759400  0.69351900  1
  C  50  1  0.45031000  0.97206100  0.70440800  1
  C  51  1  0.44324800  0.95294200  0.72834200  1
  C  52  1  0.49812000  0.00135700  0.67025900  1
  C  53  1  0.51010800  0.02727800  0.69015800  1
  C  54  1  0.48079100  0.04280000  0.70705400  1
  C  55  1  0.49146400  0.06476500  0.72769200  1
  C  56  1  0.53213100  0.07202400  0.73227800  1
  C  57  1  0.56185900  0.05593300  0.71693800  1
  C  58  1  0.55098200  0.03384100  0.69664700  1
  C  59  1  0.53038400  0.99350900  0.64744300  1
  C  60  1  0.46253800  0.00725200  0.64970000  1
  C  61  1  0.45098100  0.03611900  0.64055800  1
  C  62  1  0.42101400  0.04070900  0.61907500  1
  C  63  1  0.40243100  0.01652300  0.60502200  1
  C  64  1  0.41346200  0.98762200  0.61362600  1
  C  65  1  0.44320000  0.98320200  0.63523100  1
  C  66  1  0.54207900  0.96401700  0.64067800  1
  C  67  1  0.57144400  0.95776900  0.61913000  1
  C  68  1  0.58866000  0.98075500  0.60237900  1
  C  69  1  0.57635700  0.01010400  0.60781200  1
  C  70  1  0.54734700  0.01617500  0.62951900  1
  C  91  1  0.22400900  0.74249900  0.05926900  1
  C  92  1  0.26354300  0.73261400  0.05428000  1
  C  93  1  0.27095100  0.70912600  0.03460900  1
  C  94  1  0.23926500  0.69352100  0.02032600  1
  C  95  1  0.19965600  0.70408000  0.02570700  1
  C  96  1  0.19202400  0.72773400  0.04505300  1
  C  97  1  0.24829700  0.67061700  0.99634700  1
  C  98  1  0.26042400  0.69089300  0.97076000  1
  C  99  1  0.23116500  0.70784800  0.95524500  1
  C  100  1  0.24191400  0.72865900  0.93347100  1
  C  101  1  0.28261500  0.73339300  0.92643200  1
  C  102  1  0.31229100  0.71804200  0.94256800  1
  C  103  1  0.30132300  0.69756300  0.96446400  1
  C  104  1  0.28066900  0.64788600  0.00419700  1
  C  105  1  0.21301100  0.64995400  0.98987200  1
  C  106  1  0.20193200  0.64116000  0.96079300  1
  C  107  1  0.17209600  0.61970500  0.95566300  1
  C  108  1  0.15327600  0.60525500  0.97950900  1
  C  109  1  0.16391800  0.61341300  0.00861200  1
  C  110  1  0.19349300  0.63502500  0.01356300  1
  C  111  1  0.29200400  0.64085000  0.03370400  1
  C  112  1  0.32130800  0.61925800  0.03995900  1
  C  113  1  0.33886000  0.60275900  0.01693000  1
  C  114  1  0.32703500  0.60852900  0.98754200  1
  C  115  1  0.29807500  0.63026700  0.98147200  1
  C  136  1  0.72492000  0.25613600  0.93779000  1
  C  137  1  0.76430900  0.26641000  0.94261700  1
  C  138  1  0.77143800  0.29004600  0.96216700  1
  C  139  1  0.73956800  0.30537300  0.97653200  1
  C  140  1  0.70011300  0.29441100  0.97133900  1
  C  141  1  0.69277400  0.27062600  0.95209200  1
  C  142  1  0.74832600  0.32843200  0.00042800  1
  C  143  1  0.76102900  0.30832800  0.02600800  1
  C  144  1  0.73221100  0.29112600  0.04168100  1
  C  145  1  0.74355500  0.27029400  0.06326900  1
  C  146  1  0.78441700  0.26578400  0.06996200  1
  C  147  1  0.81365900  0.28148200  0.05373000  1
  C  148  1  0.80211000  0.30201200  0.03204500  1
  C  149  1  0.78026200  0.35147000  0.99251600  1
  C  150  1  0.71269500  0.34877800  0.00688200  1
  C  151  1  0.70143000  0.35747900  0.03594900  1
  C  152  1  0.67129800  0.37872600  0.04103200  1
  C  153  1  0.65227900  0.39299500  0.01716000  1
  C  154  1  0.66301800  0.38484300  0.98807300  1
  C  155  1  0.69290300  0.36345700  0.98316200  1
  C  156  1  0.79166900  0.35843900  0.96301200  1
  C  157  1  0.82087100  0.38011100  0.95676300  1
  C  158  1  0.83820400  0.39675600  0.97977900  1
  C  159  1  0.82623500  0.39107300  0.00915300  1
  C  160  1  0.79736000  0.36927500  0.01522000  1
  C  181  1  0.83182700  0.21999800  0.12502300  1
  C  182  1  0.82883000  0.19127600  0.11276500  1
  C  183  1  0.84364000  0.16653500  0.12813600  1
  C  184  1  0.86186900  0.17023400  0.15617800  1
  C  186  1  0.84970100  0.22257300  0.15325200  1
  C  187  1  0.87923500  0.14631300  0.17218500  1
  C  188  1  0.89371700  0.14927200  0.20146800  1
  C  189  1  0.91087900  0.12478700  0.21591900  1
  C  190  1  0.91451700  0.09719300  0.20137600  1
  C  191  1  0.89945100  0.09525800  0.17221100  1
  C  199  1  0.82143100  0.24509000  0.10916600  1
  C  200  1  0.92918900  0.07235600  0.21579100  1
  C  203  1  0.32920000  0.77784900  0.86976600  1
  C  204  1  0.32138000  0.80709600  0.87940500  1
  C  205  1  0.33781700  0.83152600  0.86441200  1
  C  206  1  0.36279500  0.82701800  0.83947500  1
  C  208  1  0.35313500  0.77452600  0.84414300  1
  C  209  1  0.38321600  0.85054300  0.82485600  1
  C  210  1  0.40786700  0.84608100  0.79973600  1
  C  211  1  0.42867500  0.87007100  0.78717000  1
  C  212  1  0.42532300  0.89885800  0.79928000  1
  C  213  1  0.40017300  0.90222700  0.82425900  1
  C  221  1  0.31787400  0.75311100  0.88599100  1
  C  222  1  0.44482900  0.92332100  0.78743300  1
  C  225  1  0.07874300  0.86956300  0.22121600  1
  C  226  1  0.07072200  0.87917700  0.19199400  1
  C  227  1  0.08685400  0.86408700  0.16751500  1
  C  228  1  0.11170000  0.83906400  0.17195100  1
  C  230  1  0.10261000  0.84389800  0.22448200  1
  C  231  1  0.13176100  0.82430800  0.14834700  1
  C  232  1  0.15619900  0.79905600  0.15272000  1
  C  233  1  0.17666000  0.78634700  0.12864300  1
  C  234  1  0.17319300  0.79846100  0.09986800  1
  C  235  1  0.14825000  0.82356200  0.09658100  1
  C  243  1  0.06788400  0.88595300  0.24594100  1
  C  244  1  0.19232400  0.78645500  0.07533500  1
  C  247  1  0.57862100  0.12878900  0.77668300  1
  C  248  1  0.57106300  0.11908200  0.80594600  1
  C  249  1  0.58750200  0.13413100  0.83034100  1
  C  250  1  0.61220700  0.15920900  0.82578300  1
  C  252  1  0.60237000  0.15450300  0.77331400  1
  C  253  1  0.63253800  0.17395800  0.84927100  1
  C  254  1  0.65696600  0.19918800  0.84474700  1
  C  255  1  0.67769600  0.21190000  0.86869500  1
  C  256  1  0.67450000  0.19982300  0.89750400  1
  C  257  1  0.64957300  0.17473100  0.90094200  1
  C  265  1  0.56741000  0.11249000  0.75197000  1
  C  266  1  0.69390400  0.21183800  0.92192500  1
  C  269  1  0.83730500  0.98102500  0.45696400  1
  C  270  1  0.79977100  0.97969700  0.44232500  1
  C  271  1  0.76387000  0.97661100  0.45847300  1
  C  272  1  0.76508500  0.97500300  0.48973000  1
  C  274  1  0.83714600  0.97902900  0.48814600  1
  C  275  1  0.72977900  0.97415100  0.50754200  1
  C  276  1  0.73110200  0.97151400  0.53872200  1
  C  277  1  0.69545600  0.97359800  0.55530500  1
  C  278  1  0.65796700  0.97812000  0.54119700  1
  C  279  1  0.65797900  0.97986300  0.50999300  1
  C  287  1  0.87248800  0.98643600  0.44151800  1
  C  288  1  0.62312700  0.98391000  0.55700900  1
  C  291  1  0.33322600  0.01357300  0.54473300  1
  C  292  1  0.29523200  0.01577100  0.55858800  1
  C  293  1  0.26024600  0.02046100  0.54175500  1
  C  294  1  0.26284300  0.02278400  0.51058100  1
  C  296  1  0.33450400  0.01639600  0.51362800  1
  C  297  1  0.22834200  0.02493200  0.49203300  1
  C  298  1  0.23099400  0.02782200  0.46091700  1
  C  299  1  0.19594000  0.02662300  0.44356400  1
  C  300  1  0.15774900  0.02276500  0.45683300  1
  C  301  1  0.15646500  0.02099200  0.48802700  1
  C  309  1  0.36732900  0.00657400  0.56080100  1
  C  310  1  0.12334600  0.01738600  0.44033200  1
  C  313  1  0.08402300  0.54466800  0.98247600  1
  C  314  1  0.04632300  0.55885200  0.97963600  1
  C  315  1  0.01090600  0.54222600  0.97609600  1
  C  316  1  0.01278400  0.51094900  0.97552900  1
  C  318  1  0.08453700  0.51344000  0.98150300  1
  C  319  1  0.97788900  0.49273700  0.97428200  1
  C  320  1  0.97992100  0.46152800  0.97234600  1
  C  321  1  0.94452500  0.44461100  0.97401800  1
  C  322  1  0.90661800  0.45841700  0.97742500  1
  C  323  1  0.90595100  0.48964400  0.97849200  1
  C  331  1  0.11870200  0.56057500  0.98819300  1
  C  332  1  0.87189900  0.44235600  0.98285400  1
  C  335  1  0.58316400  0.45353300  0.01438400  1
  C  336  1  0.54525400  0.43949600  0.01625200  1
  C  337  1  0.50993300  0.45620500  0.01993600  1
  C  338  1  0.51211900  0.48743600  0.02158700  1
  C  340  1  0.58397900  0.48470800  0.01647700  1
  C  341  1  0.47737500  0.50581200  0.02289300  1
  C  342  1  0.47966900  0.53696300  0.02553100  1
  C  343  1  0.44448900  0.55411900  0.02374400  1
  C  344  1  0.40652600  0.54061600  0.01952700  1
  C  345  1  0.40557900  0.50941500  0.01784400  1
  C  353  1  0.61773600  0.43757500  0.00835600  1
  C  354  1  0.37208300  0.55696900  0.01395500  1
  N  41  1  0.87990500  0.97153400  0.41770000  1
  N  42  1  0.12026300  0.02516100  0.41304800  1
  N  43  1  0.95838200  0.07487100  0.23458100  1
  N  44  1  0.04185500  0.90697300  0.24475300  1
  N  86  1  0.37520900  0.02199100  0.58424700  1
  N  87  1  0.61829600  0.97475100  0.58371100  1
  N  88  1  0.47028600  0.92102700  0.76581400  1
  N  89  1  0.54207900  0.09102700  0.75339500  1
  N  131  1  0.12607000  0.58460900  0.97358500  1
  N  132  1  0.36818600  0.58382200  0.02291600  1
  N  133  1  0.21815600  0.76506700  0.07753700  1
  N  134  1  0.29265400  0.75456000  0.90752100  1
  N  176  1  0.62490100  0.41354800  0.02301100  1
  N  177  1  0.86772600  0.41553900  0.97386100  1
  N  178  1  0.71934000  0.23347100  0.91959100  1
  N  179  1  0.79480500  0.24441700  0.08854200  1
  N  185  1  0.86380800  0.19819600  0.16731100  1
  N  192  1  0.88292700  0.11931800  0.15909000  1
  N  207  1  0.36894100  0.79860100  0.83058000  1
  N  214  1  0.38076800  0.87853800  0.83582300  1
  N  229  1  0.11808300  0.83021700  0.20035600  1
  N  236  1  0.12917300  0.83525400  0.12035200  1
  N  251  1  0.61813300  0.16815000  0.79735500  1
  N  258  1  0.63023500  0.16303200  0.87728800  1
  N  273  1  0.80187300  0.97631300  0.50290900  1
  N  280  1  0.69305400  0.97811100  0.49481200  1
  N  295  1  0.30004900  0.02059300  0.49817500  1
  N  302  1  0.19098100  0.02180000  0.50394900  1
  N  317  1  0.04970800  0.49821500  0.97829500  1
  N  324  1  0.94078500  0.50516100  0.97716200  1
  N  339  1  0.54923800  0.50002900  0.01975300  1
  N  346  1  0.44022000  0.49367500  0.01928200  1
