# generated using pymatgen
data_H9C14(N2O)2
_symmetry_space_group_name_H-M   'P 1'
_cell_length_a   27.33223276
_cell_length_b   27.33510000
_cell_length_c   43.72930000
_cell_angle_alpha   90.85290000
_cell_angle_beta   90.00000156
_cell_angle_gamma   119.99640923
_symmetry_Int_Tables_number   1
_chemical_formula_structural   H9C14(N2O)2
_chemical_formula_sum   'H108 C168 N48 O24'
_cell_volume   28291.14276616
_cell_formula_units_Z   12
loop_
 _symmetry_equiv_pos_site_id
 _symmetry_equiv_pos_as_xyz
  1  'x, y, z'
loop_
 _atom_site_type_symbol
 _atom_site_label
 _atom_site_symmetry_multiplicity
 _atom_site_fract_x
 _atom_site_fract_y
 _atom_site_fract_z
 _atom_site_occupancy
  C  1  1  0.28767550  0.75097150  0.77067600  1
  C  2  1  0.33914150  0.80074950  0.77891100  1
  C  3  1  0.36154350  0.81210650  0.80894600  1
  C  4  1  0.33125950  0.77406650  0.83225250  1
  C  5  1  0.27843550  0.72640950  0.82553100  1
  C  6  1  0.25708400  0.71542500  0.79547350  1
  C  9  1  0.26969950  0.73607250  0.73936300  1
  C  10  1  0.30618600  0.76356100  0.71424100  1
  C  11  1  0.29254950  0.74274450  0.68389900  1
  C  12  1  0.23810850  0.69641950  0.67742150  1
  C  13  1  0.20038150  0.66871050  0.70127200  1
  C  14  1  0.21597650  0.68902150  0.73149400  1
  C  25  1  0.49023200  0.73739500  0.43738300  1
  C  26  1  0.48851800  0.68631000  0.44559900  1
  C  27  1  0.47712450  0.66512950  0.47560500  1
  C  28  1  0.46871000  0.69622300  0.49885500  1
  C  29  1  0.47380500  0.74870500  0.49213500  1
  C  30  1  0.48471750  0.76885950  0.46213500  1
  C  33  1  0.49395100  0.75431600  0.40612400  1
  C  34  1  0.48457750  0.71662350  0.38095100  1
  C  35  1  0.47784500  0.72931500  0.35063900  1
  C  36  1  0.48703400  0.78388400  0.34426500  1
  C  37  1  0.49729700  0.82266300  0.36818500  1
  C  38  1  0.50149850  0.80807450  0.39838200  1
  C  49  1  0.26890400  0.53372500  0.10298500  1
  C  50  1  0.21907100  0.53502200  0.11115250  1
  C  51  1  0.20819900  0.54584600  0.14134050  1
  C  52  1  0.24684650  0.55394350  0.16479600  1
  C  53  1  0.29451600  0.54904000  0.15808000  1
  C  54  1  0.30498100  0.53878900  0.12790800  1
  C  57  1  0.28341150  0.53091850  0.07167500  1
  C  58  1  0.25567750  0.54020850  0.04660500  1
  C  59  1  0.27626600  0.54771700  0.01645600  1
  C  60  1  0.32248250  0.53954850  0.01003400  1
  C  61  1  0.35053800  0.52949900  0.03383600  1
  C  62  1  0.33042650  0.52437750  0.06388400  1
  C  73  1  0.74541550  0.26184250  0.27245600  1
  C  74  1  0.69448600  0.21180900  0.28011200  1
  C  75  1  0.67234950  0.20095450  0.30999800  1
  C  76  1  0.70247600  0.23988700  0.33371350  1
  C  77  1  0.75490050  0.28786050  0.32753350  1
  C  78  1  0.77601000  0.29826500  0.29761400  1
  C  81  1  0.76279150  0.27613450  0.24131300  1
  C  82  1  0.72535600  0.24848700  0.21603700  1
  C  83  1  0.73828450  0.26873950  0.18596200  1
  C  84  1  0.79288400  0.31433700  0.17984100  1
  C  85  1  0.83146800  0.34213500  0.20385200  1
  C  86  1  0.81660050  0.32267950  0.23388900  1
  C  97  1  0.54328150  0.27976150  0.93918650  1
  C  98  1  0.54440400  0.33115900  0.94689100  1
  C  99  1  0.55535900  0.35447000  0.97681550  1
  C  100  1  0.56324650  0.32499250  0.00058600  1
  C  101  1  0.55848200  0.27215500  0.99438950  1
  C  102  1  0.54832600  0.24994100  0.96439950  1
  C  105  1  0.54082250  0.26132950  0.90798750  1
  C  106  1  0.54993050  0.29742850  0.88273250  1
  C  107  1  0.55771350  0.28360750  0.85262450  1
  C  108  1  0.55014350  0.22928550  0.84642700  1
  C  109  1  0.53991550  0.19186650  0.87038600  1
  C  110  1  0.53472950  0.20768850  0.90043950  1
  C  121  1  0.75818100  0.48074900  0.60686600  1
  C  122  1  0.80808500  0.47929500  0.61456200  1
  C  123  1  0.81938450  0.46763950  0.64425100  1
  C  124  1  0.78116100  0.45932300  0.66783850  1
  C  125  1  0.73330000  0.46424000  0.66169900  1
  C  126  1  0.72237550  0.47512350  0.63191700  1
  C  129  1  0.74348800  0.48413900  0.57573300  1
  C  130  1  0.77097450  0.47480550  0.55038050  1
  C  131  1  0.75051550  0.46784850  0.52012300  1
  C  132  1  0.70468500  0.47661500  0.51397850  1
  C  133  1  0.67714750  0.48720950  0.53806200  1
  C  134  1  0.69682150  0.49140350  0.56825300  1
  C  145  1  0.26540800  0.61865300  0.94752150  1
  C  147  1  0.18796800  0.59630100  0.91335150  1
  C  148  1  0.22484950  0.63790750  0.89298200  1
  C  150  1  0.30261850  0.66109050  0.92726350  1
  C  152  1  0.36076150  0.69355150  0.93093350  1
  C  153  1  0.39505150  0.67349750  0.91615200  1
  C  158  1  0.28598500  0.60476000  0.97337550  1
  C  160  1  0.21018300  0.64824900  0.86402700  1
  C  162  1  0.37464950  0.75610850  0.61410600  1
  C  164  1  0.43063550  0.83550650  0.58227100  1
  C  165  1  0.43649200  0.79997900  0.56070100  1
  C  167  1  0.38110000  0.72027100  0.59265600  1
  C  169  1  0.35617550  0.66209650  0.59487400  1
  C  170  1  0.30240100  0.62762400  0.57945700  1
  C  175  1  0.33933050  0.73414550  0.63948950  1
  C  177  1  0.46261550  0.81681250  0.53218300  1
  C  179  1  0.40531800  0.64623500  0.28092800  1
  C  181  1  0.42648900  0.58995200  0.24669500  1
  C  182  1  0.38451800  0.58494500  0.22607650  1
  C  184  1  0.36248650  0.64068350  0.26043050  1
  C  186  1  0.33033100  0.66661000  0.26402550  1
  C  187  1  0.34998250  0.72076550  0.24973900  1
  C  192  1  0.42005050  0.68145450  0.30695750  1
  C  194  1  0.37353300  0.55933900  0.19693500  1
  C  196  1  0.76289150  0.39742550  0.45004300  1
  C  198  1  0.84171450  0.41991250  0.41736900  1
  C  199  1  0.80582800  0.37778800  0.39616200  1
  C  201  1  0.72670800  0.35439800  0.42897800  1
  C  203  1  0.66867950  0.32082550  0.43187600  1
  C  204  1  0.63398500  0.33970500  0.41668500  1
  C  209  1  0.74130150  0.41157750  0.47562200  1
  C  211  1  0.82191600  0.36744100  0.36742000  1
  C  213  1  0.65571100  0.25897300  0.11683150  1
  C  215  1  0.59978750  0.18192850  0.08207600  1
  C  216  1  0.59478650  0.21910050  0.06200200  1
  C  218  1  0.65017850  0.29646050  0.09689000  1
  C  220  1  0.67562500  0.35449300  0.10114050  1
  C  221  1  0.72982600  0.38874100  0.08658650  1
  C  226  1  0.69076350  0.27921050  0.14279950  1
  C  228  1  0.56931300  0.20490000  0.03291200  1
  C  230  1  0.62665400  0.36519800  0.78333850  1
  C  232  1  0.60312900  0.42043800  0.75070700  1
  C  233  1  0.64494450  0.42642650  0.72979200  1
  C  235  1  0.66934300  0.37175900  0.76255550  1
  C  237  1  0.70315200  0.34755800  0.76553350  1
  C  238  1  0.68395300  0.29352000  0.75013100  1
  C  243  1  0.61327550  0.33018450  0.80874000  1
  C  245  1  0.65470850  0.45225950  0.70122900  1
  C  247  1  0.52147050  0.04960950  0.85982700  1
  C  249  1  0.50463500  0.00929700  0.80907850  1
  C  250  1  0.48055700  0.95487200  0.82133550  1
  C  252  1  0.50504650  0.99587750  0.87215300  1
  C  254  1  0.50617000  0.98667700  0.90321050  1
  C  255  1  0.56055500  0.00069100  0.91632200  1
  C  260  1  0.53146700  0.09723000  0.87740600  1
  C  262  1  0.44701050  0.90669350  0.80324700  1
  C  264  1  0.55481900  0.50753300  0.52679800  1
  C  266  1  0.53351300  0.52385100  0.47595000  1
  C  267  1  0.50208500  0.54748400  0.48802850  1
  C  269  1  0.51665100  0.52367200  0.53884100  1
  C  271  1  0.50455050  0.52219350  0.56976850  1
  C  272  1  0.46437100  0.46790600  0.58228400  1
  C  277  1  0.59164100  0.49759100  0.54464400  1
  C  279  1  0.48735950  0.58007450  0.46989300  1
  C  281  1  0.97319650  0.46564550  0.19304550  1
  C  283  1  0.01024500  0.48752500  0.14213550  1
  C  284  1  0.06532350  0.51985650  0.15413250  1
  C  286  1  0.02734650  0.50462150  0.20516400  1
  C  288  1  0.03821050  0.51672350  0.23620450  1
  C  289  1  0.02361650  0.55642750  0.24976200  1
  C  294  1  0.92693250  0.42827350  0.21076400  1
  C  296  1  0.11269200  0.53514900  0.13577550  1
  C  298  1  0.51480000  0.96420500  0.35796700  1
  C  300  1  0.53190100  0.00311800  0.30761200  1
  C  301  1  0.55463350  0.05778450  0.32042900  1
  C  303  1  0.52952550  0.01791650  0.37072400  1
  C  305  1  0.52690600  0.02756700  0.40179600  1
  C  306  1  0.47196550  0.01201050  0.41428600  1
  C  311  1  0.50536000  0.91737100  0.37522700  1
  C  313  1  0.58771700  0.10573800  0.30297300  1
  C  315  1  0.47603150  0.51374650  0.02437650  1
  C  317  1  0.50012650  0.49625250  0.97415300  1
  C  318  1  0.53134200  0.47348700  0.98715750  1
  C  320  1  0.51442150  0.49912750  0.03744050  1
  C  322  1  0.52504050  0.50165250  0.06861550  1
  C  323  1  0.56334600  0.55648100  0.08230750  1
  C  328  1  0.43758750  0.52289250  0.04131750  1
  C  330  1  0.54651300  0.43978500  0.96972850  1
  C  332  1  0.05812100  0.54457400  0.69126400  1
  C  334  1  0.01606400  0.52102500  0.64109200  1
  C  335  1  0.96210900  0.49059400  0.65415300  1
  C  337  1  0.00496750  0.50690650  0.70422300  1
  C  339  1  0.99700700  0.49628800  0.73530000  1
  C  340  1  0.01220550  0.45633850  0.74726900  1
  C  345  1  0.10618400  0.58240300  0.70836800  1
  C  347  1  0.91334800  0.47601100  0.63693100  1
  H  7  1  0.36100050  0.83066750  0.76310000  1
  H  16  1  0.18612500  0.66883000  0.74765100  1
  H  17  1  0.33717550  0.80524450  0.87202200  1
  H  18  1  0.21105550  0.70544250  0.63920800  1
  H  19  1  0.22064450  0.67805450  0.79215700  1
  H  20  1  0.34687850  0.79481350  0.71789900  1
  H  31  1  0.49694500  0.66396600  0.42977750  1
  H  40  1  0.51135600  0.83863900  0.41461500  1
  H  41  1  0.49372400  0.69215300  0.53866900  1
  H  42  1  0.52297950  0.80859550  0.30597750  1
  H  43  1  0.48370350  0.80509750  0.45876250  1
  H  44  1  0.47419250  0.67580850  0.38457800  1
  H  55  1  0.18885000  0.52694400  0.09515850  1
  H  64  1  0.35075800  0.51452400  0.07995850  1
  H  65  1  0.21649300  0.52842100  0.20416450  1
  H  66  1  0.31308950  0.50413850  0.97116200  1
  H  67  1  0.34245200  0.54005600  0.12467200  1
  H  68  1  0.22453700  0.54972400  0.05032950  1
  H  79  1  0.67292850  0.18136550  0.26392600  1
  H  88  1  0.84693500  0.34306800  0.25021000  1
  H  89  1  0.69740800  0.21000100  0.37318000  1
  H  90  1  0.81827600  0.30419900  0.14117900  1
  H  91  1  0.81199800  0.33593500  0.29460700  1
  H  92  1  0.68449100  0.21796100  0.21954000  1
  H  103  1  0.53610400  0.35238300  0.93072550  1
  H  112  1  0.52524700  0.17813100  0.91668050  1
  H  113  1  0.53805250  0.33197450  0.03994950  1
  H  114  1  0.51450850  0.20136750  0.80785250  1
  H  115  1  0.54965050  0.21362650  0.96146100  1
  H  116  1  0.55904950  0.33807650  0.88621600  1
  H  127  1  0.83820300  0.48811200  0.59856900  1
  H  136  1  0.67648800  0.50103300  0.58466000  1
  H  137  1  0.81202700  0.48374900  0.70766500  1
  H  138  1  0.71435150  0.51285550  0.47601300  1
  H  139  1  0.68487650  0.47394850  0.62886900  1
  H  140  1  0.80169950  0.46465550  0.55377100  1
  H  151  1  0.14589800  0.57151900  0.90845000  1
  H  154  1  0.43860000  0.69782400  0.92438550  1
  H  155  1  0.39460900  0.67789500  0.89135800  1
  H  156  1  0.37951050  0.62910750  0.92126650  1
  H  159  1  0.32887900  0.62542100  0.97645500  1
  H  161  1  0.17114800  0.62315900  0.85444800  1
  H  168  1  0.44771400  0.87777300  0.57864800  1
  H  171  1  0.28359000  0.58382700  0.58665100  1
  H  172  1  0.30800850  0.62895950  0.55464400  1
  H  173  1  0.27289350  0.64226650  0.58507600  1
  H  176  1  0.31699100  0.69114000  0.64138100  1
  H  178  1  0.47637600  0.85641400  0.52405300  1
  H  185  1  0.45106050  0.57243950  0.24183700  1
  H  188  1  0.32604900  0.74027100  0.25814350  1
  H  189  1  0.34482500  0.71553500  0.22490000  1
  H  190  1  0.39457200  0.74960200  0.25511500  1
  H  193  1  0.39991100  0.70422800  0.30992150  1
  H  195  1  0.39846100  0.54526700  0.18738250  1
  H  202  1  0.88388100  0.44503600  0.41329400  1
  H  205  1  0.59025850  0.31492250  0.42418200  1
  H  206  1  0.63510150  0.33479650  0.39185700  1
  H  207  1  0.64859100  0.38400800  0.42222000  1
  H  210  1  0.69831750  0.39118750  0.47783400  1
  H  212  1  0.86120200  0.39294600  0.35869700  1
  H  219  1  0.58237750  0.13991350  0.07682700  1
  H  222  1  0.74936350  0.43227850  0.09506150  1
  H  223  1  0.72459500  0.38843500  0.06178600  1
  H  224  1  0.75869900  0.37307500  0.09166750  1
  H  227  1  0.71344800  0.32208900  0.14611350  1
  H  229  1  0.55523800  0.16604900  0.02293100  1
  H  236  1  0.57778500  0.43723000  0.74655100  1
  H  239  1  0.70911500  0.27492600  0.75768000  1
  H  240  1  0.68815950  0.29877650  0.72530500  1
  H  241  1  0.63993950  0.26396150  0.75538800  1
  H  244  1  0.63423100  0.30818100  0.81109900  1
  H  246  1  0.62908050  0.46594350  0.69245600  1
  H  253  1  0.50265700  0.01548100  0.78621200  1
  H  256  1  0.59322400  0.04330800  0.91013600  1
  H  257  1  0.57333550  0.97069850  0.90831800  1
  H  258  1  0.55816300  0.99934500  0.94122600  1
  H  261  1  0.52771400  0.09529500  0.90066300  1
  H  263  1  0.44219250  0.91096950  0.78042150  1
  H  270  1  0.54269950  0.52565450  0.45318500  1
  H  273  1  0.47502550  0.43552150  0.57589350  1
  H  274  1  0.42174000  0.45454700  0.57397900  1
  H  275  1  0.46470500  0.47070600  0.60720650  1
  H  278  1  0.59209250  0.50079050  0.56796700  1
  H  280  1  0.49757650  0.58461950  0.44721700  1
  H  287  1  0.00277600  0.47820200  0.11928450  1
  H  290  1  0.98035500  0.54523600  0.24374900  1
  H  291  1  0.05239350  0.59916250  0.24194100  1
  H  292  1  0.02641700  0.55613200  0.27464150  1
  H  295  1  0.92993150  0.42803250  0.23404800  1
  H  297  1  0.10714850  0.52475050  0.11298100  1
  H  304  1  0.53514150  0.99655850  0.28480400  1
  H  307  1  0.44037300  0.96892500  0.40736700  1
  H  308  1  0.45803250  0.04088750  0.40647100  1
  H  309  1  0.47403150  0.01377250  0.43922500  1
  H  312  1  0.50809100  0.91983800  0.39855600  1
  H  314  1  0.59312800  0.10084900  0.28022000  1
  H  321  1  0.49128950  0.49272550  0.95124350  1
  H  324  1  0.55213650  0.58801050  0.07551850  1
  H  325  1  0.60673900  0.57073600  0.07529750  1
  H  326  1  0.56130700  0.55413200  0.10720150  1
  H  329  1  0.43622750  0.52009450  0.06460250  1
  H  331  1  0.53698850  0.43389150  0.94687750  1
  H  338  1  0.02133450  0.52974750  0.61828300  1
  H  341  1  0.05472600  0.46688100  0.74020000  1
  H  342  1  0.98233600  0.41349900  0.73919800  1
  H  343  1  0.01178950  0.45719850  0.77221850  1
  H  346  1  0.10497450  0.58392950  0.73169500  1
  H  348  1  0.91713000  0.48541100  0.61420600  1
  N  21  1  0.15109950  0.62240650  0.69335000  1
  N  22  1  0.33436650  0.76450350  0.66275300  1
  N  23  1  0.25126450  0.69144750  0.84859300  1
  N  24  1  0.40877650  0.85999850  0.81775850  1
  N  45  1  0.50043300  0.87165300  0.36031750  1
  N  46  1  0.45650000  0.68660600  0.32939750  1
  N  47  1  0.46604050  0.77755750  0.51490100  1
  N  48  1  0.47803850  0.61842550  0.48443400  1
  N  69  1  0.39714350  0.52724450  0.02609500  1
  N  70  1  0.25477700  0.56840100  0.99548200  1
  N  71  1  0.33005700  0.55698900  0.18125900  1
  N  72  1  0.16025650  0.54458750  0.15018000  1
  N  93  1  0.88066550  0.38785850  0.19614450  1
  N  94  1  0.69579800  0.24767100  0.16478900  1
  N  95  1  0.78196250  0.32385250  0.35089300  1
  N  96  1  0.62544400  0.15295300  0.31819200  1
  N  117  1  0.53699050  0.14255150  0.86264000  1
  N  118  1  0.57763750  0.32515650  0.83150550  1
  N  119  1  0.56707650  0.24639550  0.01796400  1
  N  120  1  0.55482200  0.40204800  0.98497750  1
  N  141  1  0.63165850  0.49128150  0.53020200  1
  N  142  1  0.77198550  0.44722450  0.49874300  1
  N  143  1  0.69796450  0.45553650  0.68495900  1
  N  144  1  0.86719350  0.46780050  0.65233300  1
  N  146  1  0.20957150  0.58834650  0.93966050  1
  N  149  1  0.28010900  0.66793800  0.90132200  1
  N  163  1  0.40010000  0.81230500  0.60796200  1
  N  166  1  0.41143850  0.74430750  0.56730750  1
  N  180  1  0.43520600  0.62024500  0.27315000  1
  N  183  1  0.35487750  0.61059950  0.23434750  1
  N  197  1  0.81896550  0.42803150  0.44331900  1
  N  200  1  0.75033050  0.34726550  0.40342000  1
  N  214  1  0.62988750  0.20320250  0.10853900  1
  N  217  1  0.62020650  0.27425850  0.07082200  1
  N  231  1  0.59566850  0.39023250  0.77649650  1
  N  234  1  0.67580350  0.40183350  0.73714800  1
  N  248  1  0.52146300  0.05349600  0.82878500  1
  N  251  1  0.48317950  0.95103150  0.85224000  1
  N  265  1  0.56021650  0.50744650  0.49581200  1
  N  268  1  0.49416250  0.54498350  0.51883850  1
  N  282  1  0.96746750  0.46016650  0.16201850  1
  N  285  1  0.07088850  0.52778150  0.18504300  1
  N  299  1  0.51580000  0.95962100  0.32692600  1
  N  302  1  0.55100400  0.06225500  0.35130000  1
  N  316  1  0.47184300  0.51250800  0.99328800  1
  N  319  1  0.53804100  0.47737400  0.01812000  1
  N  333  1  0.06087900  0.54869400  0.66022300  1
  N  336  1  0.95940000  0.48391200  0.68501100  1
  O  8  1  0.35252100  0.78393400  0.86139500  1
  O  15  1  0.22050050  0.67829150  0.64806700  1
  O  32  1  0.45713600  0.67631100  0.52796800  1
  O  39  1  0.48666700  0.80030500  0.31493500  1
  O  56  1  0.23744700  0.56513300  0.19409350  1
  O  63  1  0.34045500  0.54048200  0.98077100  1
  O  80  1  0.68147550  0.23057250  0.36272100  1
  O  87  1  0.80958500  0.33182400  0.15063100  1
  O  104  1  0.57467650  0.34722950  0.02963700  1
  O  111  1  0.55116900  0.21143600  0.81719750  1
  O  128  1  0.79092300  0.44732200  0.69665500  1
  O  135  1  0.68702650  0.47623450  0.48469100  1
  O  157  1  0.37942450  0.74463150  0.93054450  1
  O  174  1  0.38926450  0.64423950  0.59392500  1
  O  191  1  0.27910100  0.63481400  0.26300900  1
  O  208  1  0.65036550  0.26981050  0.43069900  1
  O  225  1  0.64379750  0.37384150  0.10048100  1
  O  242  1  0.75411600  0.38033500  0.76465600  1
  O  259  1  0.46591900  0.94391600  0.91325650  1
  O  276  1  0.50187750  0.56278650  0.57991900  1
  O  293  1  0.08183550  0.51994250  0.24581350  1
  O  310  1  0.56668800  0.07095900  0.41244700  1
  O  327  1  0.52892950  0.46242050  0.07912700  1
  O  344  1  0.95438650  0.49309350  0.74638000  1
