# generated using pymatgen
data_ZnH8(C4O)4
_symmetry_space_group_name_H-M   'P 1'
_cell_length_a   7.42311000
_cell_length_b   12.06752000
_cell_length_c   17.62211000
_cell_angle_alpha   90.00000000
_cell_angle_beta   90.00000000
_cell_angle_gamma   89.71011000
_symmetry_Int_Tables_number   1
_chemical_formula_structural   ZnH8(C4O)4
_chemical_formula_sum   'Zn4 H32 C64 O16'
_cell_volume   1578.54247619
_cell_formula_units_Z   4
loop_
 _symmetry_equiv_pos_site_id
 _symmetry_equiv_pos_as_xyz
  1  'x, y, z'
loop_
 _atom_site_type_symbol
 _atom_site_label
 _atom_site_symmetry_multiplicity
 _atom_site_fract_x
 _atom_site_fract_y
 _atom_site_fract_z
 _atom_site_occupancy
  Zn  Zn1  1  0.24978000  0.25144000  0.25000000  1.0
  Zn  Zn2  1  0.24997000  0.74968000  0.75000000  1.0
  Zn  Zn3  1  0.75022000  0.74855000  0.75000000  1.0
  Zn  Zn4  1  0.75004000  0.25032000  0.25000000  1.0
  H  H1  1  0.63768000  0.54790000  0.18839000  1.0
  H  H2  1  0.74391000  0.74116000  0.18895000  1.0
  H  H3  1  0.74008000  0.85263000  0.07025000  1.0
  H  H4  1  0.63767000  0.77120000  0.95047000  1.0
  H  H5  1  0.86136000  0.04712000  0.81158000  1.0
  H  H6  1  0.75535000  0.24117000  0.81034000  1.0
  H  H7  1  0.75870000  0.35345000  0.92861000  1.0
  H  H8  1  0.86273000  0.27251000  0.04853000  1.0
  H  H9  1  0.36232000  0.45210000  0.68839000  1.0
  H  H10  1  0.25609000  0.25884000  0.68895000  1.0
  H  H11  1  0.25992000  0.14736000  0.57025000  1.0
  H  H12  1  0.36234000  0.22880000  0.45047000  1.0
  H  H13  1  0.13864000  0.95288000  0.31159000  1.0
  H  H14  1  0.24465000  0.75883000  0.31034000  1.0
  H  H15  1  0.24130000  0.64654000  0.42861000  1.0
  H  H16  1  0.13727000  0.72748000  0.54853000  1.0
  H  H17  1  0.36232000  0.45210000  0.81161000  1.0
  H  H18  1  0.25609000  0.25884000  0.81105000  1.0
  H  H19  1  0.25992000  0.14736000  0.92975000  1.0
  H  H20  1  0.36234000  0.22880000  0.04953000  1.0
  H  H21  1  0.13864000  0.95288000  0.18842000  1.0
  H  H22  1  0.24465000  0.75883000  0.18966000  1.0
  H  H23  1  0.24131000  0.64654000  0.07139000  1.0
  H  H24  1  0.13727000  0.72748000  0.95147000  1.0
  H  H25  1  0.63768000  0.54789000  0.31161000  1.0
  H  H26  1  0.74391000  0.74116000  0.31105000  1.0
  H  H27  1  0.74008000  0.85263000  0.42975000  1.0
  H  H28  1  0.63767000  0.77120000  0.54953000  1.0
  H  H29  1  0.86137000  0.04712000  0.68841000  1.0
  H  H30  1  0.75535000  0.24117000  0.68966000  1.0
  H  H31  1  0.75870000  0.35345000  0.57139000  1.0
  H  H32  1  0.86273000  0.27252000  0.45148000  1.0
  C  C1  1  0.49898000  0.43768000  0.06772000  1.0
  C  C2  1  0.57080000  0.54578000  0.06841000  1.0
  C  C3  1  0.63596000  0.59626000  0.13643000  1.0
  C  C4  1  0.69501000  0.70393000  0.13668000  1.0
  C  C5  1  0.69354000  0.76739000  0.06894000  1.0
  C  C6  1  0.63604000  0.72157000  0.00195000  1.0
  C  C7  1  0.57199000  0.61007000  0.99905000  1.0
  C  C8  1  0.49947000  0.37092000  0.13959000  1.0
  C  C9  1  0.00016000  0.93692000  0.93250000  1.0
  C  C10  1  0.92892000  0.04563000  0.93150000  1.0
  C  C11  1  0.86343000  0.09596000  0.86334000  1.0
  C  C12  1  0.80437000  0.20400000  0.86270000  1.0
  C  C13  1  0.80593000  0.26805000  0.93017000  1.0
  C  C14  1  0.86412000  0.22247000  0.99725000  1.0
  C  C15  1  0.92843000  0.11065000  0.00057000  1.0
  C  C16  1  0.99991000  0.87025000  0.86046000  1.0
  C  C17  1  0.50103000  0.56232000  0.56772000  1.0
  C  C18  1  0.42921000  0.45421000  0.56841000  1.0
  C  C19  1  0.36404000  0.40374000  0.63642000  1.0
  C  C20  1  0.30499000  0.29607000  0.63668000  1.0
  C  C21  1  0.30646000  0.23261000  0.56894000  1.0
  C  C22  1  0.36396000  0.27843000  0.50195000  1.0
  C  C23  1  0.42801000  0.38992000  0.49905000  1.0
  C  C24  1  0.50054000  0.62907000  0.63958000  1.0
  C  C25  1  0.99984000  0.06308000  0.43250000  1.0
  C  C26  1  0.07108000  0.95437000  0.43150000  1.0
  C  C27  1  0.13657000  0.90404000  0.36334000  1.0
  C  C28  1  0.19563000  0.79599000  0.36271000  1.0
  C  C29  1  0.19408000  0.73195000  0.43018000  1.0
  C  C30  1  0.13589000  0.77753000  0.49725000  1.0
  C  C31  1  0.07157000  0.88935000  0.50058000  1.0
  C  C32  1  0.00008000  0.12975000  0.36046000  1.0
  C  C33  1  0.50103000  0.56232000  0.93228000  1.0
  C  C34  1  0.42921000  0.45421000  0.93159000  1.0
  C  C35  1  0.36404000  0.40374000  0.86358000  1.0
  C  C36  1  0.30499000  0.29607000  0.86333000  1.0
  C  C37  1  0.30646000  0.23261000  0.93106000  1.0
  C  C38  1  0.36396000  0.27843000  0.99805000  1.0
  C  C39  1  0.42801000  0.38992000  0.00095000  1.0
  C  C40  1  0.50054000  0.62907000  0.86042000  1.0
  C  C41  1  0.99984000  0.06308000  0.06750000  1.0
  C  C42  1  0.07108000  0.95437000  0.06850000  1.0
  C  C43  1  0.13656000  0.90404000  0.13666000  1.0
  C  C44  1  0.19563000  0.79599000  0.13730000  1.0
  C  C45  1  0.19407000  0.73195000  0.06983000  1.0
  C  C46  1  0.13588000  0.77753000  0.00276000  1.0
  C  C47  1  0.07157000  0.88935000  0.99943000  1.0
  C  C48  1  0.00007000  0.12975000  0.13954000  1.0
  C  C49  1  0.49897000  0.43768000  0.43228000  1.0
  C  C50  1  0.57079000  0.54578000  0.43160000  1.0
  C  C51  1  0.63596000  0.59626000  0.36358000  1.0
  C  C52  1  0.69501000  0.70393000  0.36333000  1.0
  C  C53  1  0.69354000  0.76739000  0.43106000  1.0
  C  C54  1  0.63604000  0.72157000  0.49805000  1.0
  C  C55  1  0.57199000  0.61007000  0.50095000  1.0
  C  C56  1  0.49947000  0.37092000  0.36042000  1.0
  C  C57  1  0.00016000  0.93692000  0.56750000  1.0
  C  C58  1  0.92893000  0.04563000  0.56850000  1.0
  C  C59  1  0.86344000  0.09596000  0.63666000  1.0
  C  C60  1  0.80438000  0.20400000  0.63730000  1.0
  C  C61  1  0.80593000  0.26805000  0.56983000  1.0
  C  C62  1  0.86412000  0.22247000  0.50275000  1.0
  C  C63  1  0.92844000  0.11065000  0.49943000  1.0
  C  C64  1  0.99992000  0.87025000  0.63954000  1.0
  O  O1  1  0.34609000  0.34518000  0.16658000  1.0
  O  O2  1  0.65352000  0.34496000  0.16647000  1.0
  O  O3  1  0.15361000  0.84459000  0.83336000  1.0
  O  O4  1  0.84627000  0.84460000  0.83337000  1.0
  O  O5  1  0.65391000  0.65481000  0.66657000  1.0
  O  O6  1  0.34648000  0.65504000  0.66647000  1.0
  O  O7  1  0.84640000  0.15541000  0.33333333  1.0
  O  O8  1  0.15374000  0.15540000  0.33333333  1.0
  O  O9  1  0.65391000  0.65481000  0.83343000  1.0
  O  O10  1  0.34648000  0.65504000  0.83353000  1.0
  O  O11  1  0.84640000  0.15541000  0.16664000  1.0
  O  O12  1  0.15374000  0.15540000  0.16663000  1.0
  O  O13  1  0.34608000  0.34518000  0.33343000  1.0
  O  O14  1  0.65351000  0.34496000  0.33353000  1.0
  O  O15  1  0.15361000  0.84459000  0.66666667  1.0
  O  O16  1  0.84627000  0.84460000  0.66663000  1.0
