# generated using pymatgen
data_H27C39N5O3
_symmetry_space_group_name_H-M   'P 1'
_cell_length_a   30.96120000
_cell_length_b   46.58156213
_cell_length_c   46.57950000
_cell_angle_alpha   120.00160652
_cell_angle_beta   90.29990000
_cell_angle_gamma   89.40021898
_symmetry_Int_Tables_number   1
_chemical_formula_structural   H27C39N5O3
_chemical_formula_sum   'H162 C234 N30 O18'
_cell_volume   58173.66971536
_cell_formula_units_Z   6
loop_
 _symmetry_equiv_pos_site_id
 _symmetry_equiv_pos_as_xyz
  1  'x, y, z'
loop_
 _atom_site_type_symbol
 _atom_site_label
 _atom_site_symmetry_multiplicity
 _atom_site_fract_x
 _atom_site_fract_y
 _atom_site_fract_z
 _atom_site_occupancy
  H  6  1  0.06625200  0.95766200  0.75152700  1
  H  9  1  0.73589600  0.95836800  0.19948900  1
  H  14  1  0.18046900  0.92194200  0.77352800  1
  H  27  1  0.01479800  0.76330400  0.83578800  1
  H  28  1  0.98245700  0.74006100  0.86633200  1
  H  29  1  0.90222700  0.74094300  0.77692800  1
  H  30  1  0.83361800  0.74814900  0.87267700  1
  H  31  1  0.80087100  0.77991400  0.92635900  1
  H  32  1  0.90321900  0.75238600  0.96836300  1
  H  54  1  0.14908900  0.86781500  0.75000000  1
  H  55  1  0.03558000  0.90333400  0.72763800  1
  H  56  1  0.13303900  0.81732200  0.67574200  1
  H  57  1  0.12490300  0.78670700  0.61685300  1
  H  58  1  0.99875100  0.86849100  0.75601900  1
  H  59  1  0.96539900  0.84688800  0.78764100  1
  H  60  1  0.06836500  0.77816900  0.76278900  1
  H  61  1  0.10106900  0.79972800  0.73083000  1
  H  62  1  0.99969700  0.83853700  0.68662200  1
  H  63  1  0.99102900  0.80861600  0.62783000  1
  H  85  1  0.84874500  0.82613200  0.05721000  1
  H  86  1  0.81550900  0.85647100  0.11092000  1
  H  87  1  0.70489700  0.79692500  0.07439900  1
  H  88  1  0.73732200  0.76683100  0.02037900  1
  H  89  1  0.80137100  0.82756700  0.15585600  1
  H  90  1  0.79445200  0.80135200  0.18864000  1
  H  91  1  0.66678400  0.86256800  0.10883300  1
  H  92  1  0.63435200  0.91648800  0.12999800  1
  H  93  1  0.76769200  0.90414600  0.17833100  1
  H  94  1  0.66605800  0.82852600  0.14656500  1
  H  95  1  0.65860300  0.80272800  0.17962400  1
  H  104  1  0.11531000  0.78670000  0.51565700  1
  H  105  1  0.11092300  0.75582400  0.45619800  1
  H  106  1  0.04497900  0.74022300  0.39826700  1
  H  107  1  0.97527200  0.74260100  0.37630000  1
  H  109  1  0.10918900  0.78393600  0.56675400  1
  H  113  1  0.73487700  0.76033600  0.30303900  1
  H  114  1  0.73896700  0.78861100  0.27178000  1
  H  116  1  0.76953300  0.75124100  0.18817200  1
  H  118  1  0.87064700  0.71721900  0.80727400  1
  H  119  1  0.93527100  0.72021400  0.91433500  1
  H  128  1  0.04456600  0.71232700  0.52050100  1
  H  129  1  0.12094000  0.71246500  0.37997600  1
  H  131  1  0.88783700  0.71458000  0.38905800  1
  H  140  1  0.75132200  0.69658200  0.18343100  1
  H  141  1  0.66491100  0.72238000  0.31106400  1
  H  142  1  0.59693500  0.69554700  0.30553500  1
  H  143  1  0.81287100  0.70797700  0.37029000  1
  H  144  1  0.74989300  0.71508000  0.34395600  1
  H  146  1  0.96772200  0.66564600  0.83700600  1
  H  147  1  0.83248600  0.67716400  0.83889600  1
  H  152  1  0.03969800  0.68200000  0.46131500  1
  H  153  1  0.18220000  0.68151700  0.34684200  1
  H  159  1  0.74673400  0.66847200  0.21474800  1
  H  160  1  0.81456300  0.66747500  0.25204900  1
  H  167  1  0.95991900  0.60669000  0.81055600  1
  H  168  1  0.82417000  0.61838800  0.81293200  1
  H  190  1  0.67899000  0.04537900  0.21654500  1
  H  191  1  0.64749100  0.09991800  0.24112400  1
  H  192  1  0.53105900  0.06341200  0.25625900  1
  H  193  1  0.56180200  0.00866700  0.23117000  1
  H  194  1  0.62892200  0.15319000  0.31189600  1
  H  195  1  0.62352500  0.17902700  0.37088800  1
  H  196  1  0.49255700  0.10133800  0.23623500  1
  H  197  1  0.45709800  0.12264700  0.20467400  1
  H  198  1  0.56174400  0.18723200  0.22325100  1
  H  199  1  0.59663200  0.16594800  0.25504800  1
  H  200  1  0.49970200  0.12237700  0.30225700  1
  H  201  1  0.49356800  0.14842700  0.36125000  1
  H  225  1  0.34174100  0.14288200  0.93328700  1
  H  226  1  0.31032900  0.11209900  0.87896200  1
  H  227  1  0.19831500  0.17191600  0.91283400  1
  H  228  1  0.22908400  0.20263500  0.96734100  1
  H  229  1  0.29558700  0.13659300  0.82826900  1
  H  230  1  0.28795400  0.16430100  0.79702300  1
  H  231  1  0.16109200  0.10712700  0.87816200  1
  H  232  1  0.12864300  0.05362000  0.85668000  1
  H  233  1  0.23210400  0.01026700  0.78905700  1
  H  234  1  0.26388400  0.06405300  0.81047900  1
  H  235  1  0.16185800  0.14612300  0.84697100  1
  H  236  1  0.15367300  0.17446600  0.81644900  1
  H  261  1  0.50860400  0.20420200  0.15368800  1
  H  262  1  0.47749500  0.22828900  0.12311100  1
  H  263  1  0.36318800  0.25011700  0.17916100  1
  H  264  1  0.39368600  0.22580600  0.20966300  1
  H  265  1  0.46233400  0.30101600  0.14274900  1
  H  266  1  0.45831200  0.36015100  0.17565300  1
  H  267  1  0.32427000  0.22731400  0.11875000  1
  H  268  1  0.28944300  0.19605200  0.06583800  1
  H  269  1  0.39521700  0.21375000  0.01993400  1
  H  270  1  0.42939700  0.24533800  0.07307100  1
  H  271  1  0.33162400  0.29445400  0.16307300  1
  H  272  1  0.32690200  0.35357400  0.19580500  1
  H  298  1  0.91394400  0.50759600  0.70586600  1
  H  299  1  0.90887800  0.44820000  0.67777700  1
  H  300  1  0.89916400  0.45179900  0.76968800  1
  H  301  1  0.90373300  0.51130600  0.79794700  1
  H  302  1  0.82867200  0.40566100  0.73188900  1
  H  303  1  0.76042000  0.38410400  0.70520700  1
  H  304  1  0.97715000  0.40989900  0.67674400  1
  H  305  1  0.04096700  0.37757000  0.67097200  1
  H  306  1  0.97665400  0.33190000  0.71692100  1
  H  307  1  0.91360800  0.36547800  0.72424300  1
  H  308  1  0.88437200  0.37915100  0.63948500  1
  H  309  1  0.81591000  0.35754300  0.61270100  1
  H  311  1  0.93349100  0.55736300  0.76043500  1
  H  313  1  0.72143600  0.37965400  0.65243900  1
  H  315  1  0.04302800  0.30792600  0.66964200  1
  H  335  1  0.56597500  0.27346500  0.46960900  1
  H  336  1  0.56139500  0.30226800  0.52900900  1
  H  337  1  0.57695400  0.21187100  0.52808500  1
  H  338  1  0.58132800  0.18284600  0.46856500  1
  H  339  1  0.48705600  0.25079300  0.54268600  1
  H  340  1  0.42549200  0.24424300  0.56914800  1
  H  341  1  0.59757800  0.33619800  0.58729800  1
  H  342  1  0.66353500  0.35956000  0.61598300  1
  H  343  1  0.69010800  0.27217100  0.61918000  1
  H  344  1  0.62391900  0.24857600  0.58969600  1
  H  345  1  0.55276100  0.29733700  0.63443600  1
  H  346  1  0.49044800  0.29106600  0.66075400  1
  H  348  1  0.59089200  0.22155200  0.42017200  1
  H  350  1  0.41133800  0.23701700  0.62214100  1
  H  352  1  0.71537300  0.33580200  0.66311300  1
  H  372  1  0.27912700  0.26456300  0.79561300  1
  H  373  1  0.27497300  0.29306200  0.76462100  1
  H  374  1  0.20305600  0.21441200  0.69058000  1
  H  375  1  0.20776600  0.18559800  0.72098500  1
  H  376  1  0.16923200  0.24674400  0.66544300  1
  H  377  1  0.09889100  0.27054000  0.66890100  1
  H  378  1  0.27007300  0.22421000  0.65232400  1
  H  379  1  0.33106900  0.22612000  0.62146800  1
  H  380  1  0.34543900  0.32790400  0.68993200  1
  H  381  1  0.28451400  0.32595500  0.72087800  1
  H  382  1  0.20886400  0.33539100  0.74927700  1
  H  383  1  0.13909200  0.35989600  0.75172200  1
  H  385  1  0.27238900  0.21097200  0.79315000  1
  H  387  1  0.05167500  0.31928000  0.72312800  1
  H  389  1  0.36696700  0.27226300  0.61105900  1
  H  409  1  0.40433500  0.46021500  0.17969300  1
  H  410  1  0.40029500  0.51967000  0.21037700  1
  H  411  1  0.41315300  0.51838200  0.29979500  1
  H  412  1  0.41693900  0.45881300  0.26921600  1
  H  413  1  0.32432400  0.53364800  0.27513200  1
  H  414  1  0.26252100  0.56026200  0.30836600  1
  H  415  1  0.43502700  0.57866300  0.23540000  1
  H  416  1  0.50071300  0.60746200  0.24101200  1
  H  417  1  0.52735400  0.60863400  0.33052000  1
  H  418  1  0.46137100  0.57913500  0.32439100  1
  H  419  1  0.39019800  0.62487400  0.32143000  1
  H  420  1  0.32760300  0.65137700  0.35417800  1
  H  422  1  0.42772700  0.41027500  0.18222100  1
  H  424  1  0.24809300  0.61288500  0.36903700  1
  H  426  1  0.55157900  0.65366500  0.31135400  1
  H  430  1  0.00565700  0.65720500  0.40445700  1
  H  431  1  0.93535900  0.66062500  0.38422700  1
  H  432  1  0.10663100  0.64340900  0.41251800  1
  H  433  1  0.16794300  0.61253300  0.37948800  1
  H  435  1  0.20413200  0.60249600  0.32294100  1
  H  439  1  0.87827200  0.66188800  0.27867000  1
  H  440  1  0.72242600  0.63010500  0.24551300  1
  H  441  1  0.65424900  0.60316000  0.23997700  1
  H  443  1  0.55937000  0.64257500  0.25678400  1
  H  444  1  0.87990600  0.66090800  0.34724200  1
  C  1  1  0.64122500  0.98987800  0.20802700  1
  C  4  1  0.12615900  0.94517500  0.76523600  1
  C  5  1  0.08394300  0.93907100  0.75174800  1
  C  7  1  0.14488400  0.97624200  0.77718900  1
  C  8  1  0.68205800  0.94262200  0.16677700  1
  C  10  1  0.66412900  0.97418200  0.17888300  1
  C  13  1  0.72092600  0.93839200  0.18040900  1
  C  15  1  0.92357900  0.72679800  0.83969000  1
  C  16  1  0.88754800  0.73157300  0.88875900  1
  C  17  1  0.96524800  0.74060300  0.84779900  1
  C  18  1  0.98408100  0.75424200  0.82987300  1
  C  19  1  0.96139800  0.75482700  0.80369300  1
  C  20  1  0.91940800  0.74123100  0.79591900  1
  C  21  1  0.90079100  0.72729900  0.81363500  1
  C  22  1  0.84855700  0.74915700  0.89279700  1
  C  23  1  0.82935200  0.76762800  0.92427600  1
  C  24  1  0.84878100  0.76907800  0.95254000  1
  C  25  1  0.88813800  0.75167400  0.94841100  1
  C  26  1  0.90710200  0.73292700  0.91683000  1
  C  33  1  0.98061700  0.76684900  0.78477300  1
  C  34  1  0.82979200  0.78787600  0.98371600  1
  C  38  1  0.08942100  0.88079700  0.73699000  1
  C  39  1  0.05297700  0.83612500  0.74068300  1
  C  40  1  0.06717300  0.83073600  0.68652600  1
  C  41  1  0.10311300  0.81574200  0.66566200  1
  C  42  1  0.09817400  0.79803100  0.63094800  1
  C  43  1  0.05719200  0.79487300  0.61594600  1
  C  44  1  0.02134500  0.81004200  0.63729800  1
  C  45  1  0.02621900  0.82778800  0.67197700  1
  C  46  1  0.13128200  0.88681600  0.75077200  1
  C  47  1  0.14957700  0.91856300  0.76453700  1
  C  48  1  0.06584800  0.90725800  0.73773700  1
  C  49  1  0.01357000  0.84949500  0.75740300  1
  C  50  1  0.99404000  0.83669700  0.77583000  1
  C  51  1  0.01350600  0.81025200  0.77806800  1
  C  52  1  0.05317700  0.79708000  0.76143100  1
  C  53  1  0.07249200  0.80973100  0.74277900  1
  C  64  1  0.05133300  0.77603300  0.58071700  1
  C  65  1  0.99451700  0.79828800  0.79710200  1
  C  69  1  0.75716900  0.82954000  0.09737300  1
  C  70  1  0.72032300  0.87860500  0.14150100  1
  C  71  1  0.73438800  0.83035400  0.14816400  1
  C  72  1  0.77125100  0.82198500  0.16046300  1
  C  73  1  0.76704800  0.80633700  0.17949600  1
  C  74  1  0.72582500  0.79907900  0.18718100  1
  C  75  1  0.68901500  0.80768800  0.17482600  1
  C  76  1  0.69323700  0.82271500  0.15525100  1
  C  77  1  0.79875900  0.83785000  0.09180000  1
  C  78  1  0.81812200  0.82003400  0.06028500  1
  C  79  1  0.79601800  0.79382000  0.03343400  1
  C  80  1  0.75410200  0.78584200  0.03914700  1
  C  81  1  0.73499300  0.80339800  0.07076400  1
  C  82  1  0.68156600  0.88269600  0.12781500  1
  C  83  1  0.66256000  0.91430200  0.14035700  1
  C  84  1  0.73969700  0.90669300  0.16802400  1
  C  96  1  0.81562300  0.77517400  0.00244700  1
  C  97  1  0.72117800  0.78466100  0.20773300  1
  C  100  1  0.98180100  0.72394800  0.38127200  1
  C  101  1  0.09651700  0.74671100  0.46967900  1
  C  102  1  0.09904700  0.76471800  0.50452800  1
  C  103  1  0.07888500  0.75328900  0.52413600  1
  C  110  1  0.74447800  0.74525100  0.22450400  1
  C  111  1  0.73981400  0.76327000  0.25941700  1
  C  112  1  0.73783600  0.74680400  0.27780500  1
  C  121  1  0.07421400  0.71642000  0.45335800  1
  C  122  1  0.03196500  0.69805800  0.40267000  1
  C  123  1  0.94923500  0.70126300  0.37727700  1
  C  124  1  0.02257600  0.72259500  0.39415700  1
  C  125  1  0.05760200  0.72237600  0.50743600  1
  C  126  1  0.05504100  0.70431900  0.47259800  1
  C  127  1  0.13079100  0.69154100  0.38015200  1
  C  133  1  0.74009700  0.71190600  0.26165900  1
  C  134  1  0.77642900  0.69206300  0.29560300  1
  C  135  1  0.66323100  0.69713900  0.29679800  1
  C  136  1  0.74466300  0.69378500  0.22686400  1
  C  137  1  0.74753700  0.71029700  0.20860700  1
  C  138  1  0.81395600  0.70020000  0.34553000  1
  C  139  1  0.77695000  0.70415000  0.33008300  1
  C  145  1  0.90086400  0.67677700  0.84029700  1
  C  148  1  0.10816800  0.68070900  0.39920700  1
  C  149  1  0.99982300  0.67481800  0.39791200  1
  C  150  1  0.95872200  0.67670900  0.38584500  1
  C  151  1  0.16679600  0.67357400  0.36095300  1
  C  154  1  0.69992200  0.67860200  0.27911800  1
  C  155  1  0.62355100  0.68139800  0.29379300  1
  C  156  1  0.81419600  0.67671900  0.27709600  1
  C  157  1  0.85161800  0.67364300  0.29271400  1
  C  158  1  0.85190600  0.68516200  0.32706300  1
  C  162  1  0.93742900  0.65574400  0.83156600  1
  C  163  1  0.93270700  0.62109300  0.81577500  1
  C  164  1  0.89124800  0.60653800  0.80876800  1
  C  165  1  0.85474100  0.62785800  0.81770200  1
  C  166  1  0.85947400  0.66242300  0.83283600  1
  C  169  1  0.88608600  0.57160900  0.79431800  1
  C  172  1  0.58629500  0.08650700  0.25049200  1
  C  173  1  0.54774200  0.13179000  0.24855200  1
  C  174  1  0.56472900  0.13573100  0.30176500  1
  C  175  1  0.60016500  0.15250500  0.32225400  1
  C  176  1  0.59669600  0.16791900  0.35697400  1
  C  177  1  0.55773200  0.16690700  0.37226000  1
  C  178  1  0.52239300  0.14982000  0.35137500  1
  C  179  1  0.52569400  0.13466200  0.31666000  1
  C  180  1  0.62911900  0.08065500  0.23859200  1
  C  181  1  0.64748800  0.04864300  0.22418800  1
  C  182  1  0.62323700  0.02157300  0.22098200  1
  C  183  1  0.58015500  0.02756900  0.23273400  1
  C  184  1  0.56196400  0.05964400  0.24740700  1
  C  185  1  0.50714700  0.11955500  0.23374000  1
  C  186  1  0.48641000  0.13213400  0.21529500  1
  C  187  1  0.50582300  0.15723500  0.21120900  1
  C  188  1  0.54654400  0.16938100  0.22607100  1
  C  189  1  0.56710300  0.15691200  0.24466400  1
  C  202  1  0.55441800  0.18151200  0.40744400  1
  C  203  1  0.48605200  0.16874700  0.19186600  1
  C  207  1  0.25142300  0.13908400  0.89110200  1
  C  208  1  0.21544700  0.09036200  0.84630400  1
  C  209  1  0.22947200  0.13887300  0.84047900  1
  C  210  1  0.26567400  0.14480900  0.82602200  1
  C  211  1  0.26102600  0.16150200  0.80795100  1
  C  212  1  0.22008500  0.17297000  0.80388800  1
  C  213  1  0.18398300  0.16670600  0.81852600  1
  C  214  1  0.18856000  0.15006400  0.83660800  1
  C  215  1  0.29285800  0.13082300  0.89764600  1
  C  216  1  0.31115200  0.14888800  0.92951200  1
  C  217  1  0.28817400  0.17542900  0.95568200  1
  C  218  1  0.24639700  0.18334500  0.94906900  1
  C  219  1  0.22827000  0.16539800  0.91715400  1
  C  220  1  0.17618300  0.08679200  0.85941000  1
  C  221  1  0.15719300  0.05540700  0.84669500  1
  C  222  1  0.17709400  0.02678900  0.82061000  1
  C  223  1  0.21662300  0.03048200  0.80770400  1
  C  224  1  0.23539500  0.06194100  0.82026600  1
  C  237  1  0.30710200  0.19465900  0.98675200  1
  C  238  1  0.21453000  0.18910400  0.78472900  1
  C  239  1  0.15863400  0.99564900  0.80871400  1
  C  243  1  0.41740100  0.24100200  0.14809800  1
  C  244  1  0.37990000  0.23920000  0.10065600  1
  C  245  1  0.39725800  0.29242000  0.14962900  1
  C  246  1  0.43355700  0.31206200  0.15351300  1
  C  247  1  0.43090600  0.34686500  0.17264800  1
  C  248  1  0.39196100  0.36306500  0.18869800  1
  C  249  1  0.35574300  0.34302600  0.18470600  1
  C  250  1  0.35821400  0.30824600  0.16526000  1
  C  251  1  0.45942300  0.22722000  0.14087300  1
  C  252  1  0.47756300  0.21312800  0.15883800  1
  C  253  1  0.45386800  0.21222900  0.18427600  1
  C  254  1  0.41148700  0.22566300  0.19111900  1
  C  255  1  0.39350500  0.23991900  0.17326700  1
  C  256  1  0.33921500  0.22469100  0.09803800  1
  C  257  1  0.31886600  0.20642400  0.06699000  1
  C  258  1  0.33877900  0.20216900  0.03780600  1
  C  259  1  0.37963900  0.21669800  0.04058200  1
  C  260  1  0.39979400  0.23516200  0.07167500  1
  C  273  1  0.47275000  0.20042100  0.20365800  1
  C  274  1  0.38946800  0.39830300  0.20930100  1
  C  275  1  0.31932400  0.18296100  0.00693400  1
  C  280  1  0.90323800  0.44473500  0.72123400  1
  C  281  1  0.93957300  0.39089400  0.70130500  1
  C  282  1  0.86278500  0.39399500  0.68803600  1
  C  283  1  0.82654600  0.39472900  0.70665900  1
  C  284  1  0.78670200  0.38188500  0.69100600  1
  C  285  1  0.78219500  0.36801600  0.65634300  1
  C  286  1  0.81871000  0.36665700  0.63767000  1
  C  287  1  0.85870300  0.37933900  0.65331000  1
  C  288  1  0.90731600  0.46140100  0.70309900  1
  C  289  1  0.91048200  0.49615300  0.71959900  1
  C  290  1  0.90821600  0.51521900  0.75456900  1
  C  291  1  0.90398800  0.49833800  0.77260400  1
  C  292  1  0.90172500  0.46349300  0.75614400  1
  C  293  1  0.97705100  0.39405100  0.68593500  1
  C  294  1  0.01454600  0.37530100  0.68276600  1
  C  295  1  0.01517600  0.35238100  0.69417300  1
  C  296  1  0.97750900  0.34895100  0.70923100  1
  C  297  1  0.94045600  0.36842800  0.71330400  1
  C  317  1  0.56900200  0.25969700  0.53391800  1
  C  318  1  0.60482000  0.29022100  0.58573200  1
  C  319  1  0.52735400  0.27391700  0.58541800  1
  C  320  1  0.48880700  0.25941300  0.56758500  1
  C  321  1  0.45209100  0.25581900  0.58314500  1
  C  322  1  0.45205200  0.26734800  0.61751700  1
  C  323  1  0.48956600  0.28266400  0.63583600  1
  C  324  1  0.52634300  0.28607900  0.62010200  1
  C  325  1  0.56584600  0.27711400  0.51643300  1
  C  326  1  0.56847200  0.26016900  0.48162300  1
  C  327  1  0.57295200  0.22525200  0.46323900  1
  C  328  1  0.57654400  0.20795000  0.48096100  1
  C  329  1  0.57460000  0.22493500  0.51585100  1
  C  330  1  0.61721600  0.32236900  0.59353900  1
  C  331  1  0.65614500  0.33602600  0.61041400  1
  C  332  1  0.68367500  0.31805000  0.62031400  1
  C  333  1  0.67114200  0.28572800  0.61217100  1
  C  334  1  0.63240400  0.27186300  0.59495300  1
  C  354  1  0.23797900  0.25662000  0.72508100  1
  C  355  1  0.27172000  0.27491200  0.68938100  1
  C  356  1  0.19570500  0.28911100  0.70668300  1
  C  357  1  0.16347900  0.27085000  0.68320000  1
  C  358  1  0.12233800  0.28488700  0.68513400  1
  C  359  1  0.11290700  0.31788700  0.70996700  1
  C  360  1  0.14559100  0.33638600  0.73286100  1
  C  361  1  0.18637000  0.32203400  0.73150200  1
  C  362  1  0.26042500  0.27052600  0.75546400  1
  C  363  1  0.26281800  0.25372800  0.77353600  1
  C  364  1  0.24238500  0.22280300  0.76208500  1
  C  365  1  0.22101500  0.20863600  0.73105600  1
  C  366  1  0.21857400  0.22537300  0.71293800  1
  C  367  1  0.28611300  0.24604400  0.66063600  1
  C  368  1  0.32195000  0.24712800  0.64271800  1
  C  369  1  0.34432500  0.27709700  0.65324900  1
  C  370  1  0.33008400  0.30586700  0.68210100  1
  C  371  1  0.29428500  0.30477200  0.70007300  1
  C  391  1  0.40664200  0.52440300  0.25783600  1
  C  392  1  0.44234900  0.57607000  0.27923300  1
  C  393  1  0.36472600  0.57608200  0.29526200  1
  C  394  1  0.32605600  0.55847100  0.29168000  1
  C  395  1  0.28919500  0.57413300  0.31096000  1
  C  396  1  0.28911400  0.60841300  0.33415700  1
  C  397  1  0.32673400  0.62653900  0.33738100  1
  C  398  1  0.36368600  0.61069100  0.31814400  1
  C  399  1  0.40415100  0.50700700  0.22292200  1
  C  400  1  0.40645400  0.47216600  0.20500500  1
  C  401  1  0.40994600  0.45368700  0.22150100  1
  C  402  1  0.41297200  0.47131300  0.25653200  1
  C  403  1  0.41136400  0.50621900  0.27448600  1
  C  404  1  0.45466600  0.58444800  0.25526100  1
  C  405  1  0.49345800  0.60134600  0.25862300  1
  C  406  1  0.52095500  0.61063800  0.28625200  1
  C  407  1  0.50848100  0.60196100  0.31007600  1
  C  408  1  0.46985600  0.58474900  0.30659200  1
  C  427  1  0.12270000  0.65181600  0.39907400  1
  C  428  1  0.15871500  0.63388000  0.37990900  1
  C  429  1  0.18116700  0.64456900  0.36060500  1
  C  436  1  0.61964900  0.64672500  0.27295000  1
  C  437  1  0.65660300  0.62813600  0.25585000  1
  C  438  1  0.69643500  0.64386700  0.25903200  1
  N  37  1  0.07251500  0.84827200  0.72143700  1
  N  68  1  0.73875200  0.84664100  0.12950700  1
  N  108  1  0.08279300  0.77118800  0.55819800  1
  N  115  1  0.74855200  0.76080600  0.20621800  1
  N  117  1  0.90580300  0.71170100  0.85682400  1
  N  120  1  0.07160100  0.69846100  0.41826100  1
  N  130  1  0.90712900  0.70637000  0.36846900  1
  N  132  1  0.73849000  0.69526500  0.28011000  1
  N  161  1  0.88868700  0.67823100  0.34088800  1
  N  171  1  0.56974800  0.11937900  0.26688500  1
  N  206  1  0.23442300  0.12192600  0.85850100  1
  N  242  1  0.40125700  0.25741600  0.13152000  1
  N  279  1  0.90155700  0.40964300  0.70459600  1
  N  310  1  0.91264500  0.54903400  0.77009600  1
  N  312  1  0.74129700  0.35918800  0.64059900  1
  N  314  1  0.05195300  0.33153900  0.68709700  1
  N  316  1  0.56498100  0.27717700  0.56906900  1
  N  347  1  0.57596600  0.20951500  0.42924900  1
  N  349  1  0.41667700  0.26209800  0.63351800  1
  N  351  1  0.72194800  0.33110600  0.63952700  1
  N  353  1  0.23531800  0.27377100  0.70711900  1
  N  384  1  0.24607100  0.20673900  0.78012700  1
  N  386  1  0.07077400  0.33181100  0.71511500  1
  N  388  1  0.37840500  0.27967300  0.63448300  1
  N  390  1  0.40252300  0.55957900  0.27556900  1
  N  421  1  0.41225500  0.41965200  0.20323800  1
  N  423  1  0.25357400  0.62446400  0.35554000  1
  N  425  1  0.55886900  0.63005100  0.29268900  1
  N  434  1  0.21544400  0.62581300  0.33911300  1
  N  442  1  0.57897900  0.63088500  0.26573300  1
  O  2  1  0.64520100  0.98016600  0.22799300  1
  O  3  1  0.15460000  0.98641300  0.82900100  1
  O  11  1  0.65694600  0.98240400  0.15807300  1
  O  12  1  0.14819100  0.98579900  0.75709900  1
  O  35  1  0.82540400  0.81755000  0.99353900  1
  O  36  1  0.98426900  0.74690500  0.75508100  1
  O  66  1  0.99014800  0.81845700  0.82666400  1
  O  67  1  0.01110300  0.76466800  0.56940200  1
  O  98  1  0.68582000  0.79334700  0.22747700  1
  O  99  1  0.81919100  0.74536100  0.99221300  1
  O  170  1  0.85092400  0.56087200  0.80331700  1
  O  204  1  0.48111600  0.14814800  0.16251100  1
  O  205  1  0.52568700  0.16824200  0.41931100  1
  O  240  1  0.17437100  0.18908900  0.77298700  1
  O  241  1  0.31240600  0.22393000  0.99540300  1
  O  276  1  0.31342600  0.15380900  0.99850200  1
  O  277  1  0.36026200  0.41078800  0.23433200  1
  O  278  1  0.47720100  0.22091300  0.23310600  1
