# generated using pymatgen
data_MnH6(C3O)4
_symmetry_space_group_name_H-M   'P 1'
_cell_length_a   11.13770000
_cell_length_b   11.13770000
_cell_length_c   21.40350000
_cell_angle_alpha   95.98480000
_cell_angle_beta   95.98480000
_cell_angle_gamma   107.08100000
_symmetry_Int_Tables_number   1
_chemical_formula_structural   MnH6(C3O)4
_chemical_formula_sum   'Mn6 H36 C72 O24'
_cell_volume   2498.58531580
_cell_formula_units_Z   6
loop_
 _symmetry_equiv_pos_site_id
 _symmetry_equiv_pos_as_xyz
  1  'x, y, z'
loop_
 _atom_site_type_symbol
 _atom_site_label
 _atom_site_symmetry_multiplicity
 _atom_site_fract_x
 _atom_site_fract_y
 _atom_site_fract_z
 _atom_site_occupancy
  Mn  Mn1  1  0.98402000  0.50282000  0.19371000  1.0
  Mn  Mn2  1  0.49718000  0.01598000  0.30629000  1.0
  Mn  Mn3  1  0.01598000  0.49718000  0.80629000  1.0
  Mn  Mn4  1  0.50282000  0.98402000  0.69371000  1.0
  Mn  Mn5  1  0.75282000  0.24718000  0.25000000  1.0
  Mn  Mn6  1  0.24718000  0.75282000  0.75000000  1.0
  H  H1  1  0.71410000  0.60690000  0.07820000  1.0
  H  H2  1  0.47890000  0.26270000  0.09280000  1.0
  H  H3  1  0.34140000  0.27400000  0.00700000  1.0
  H  H4  1  0.95210000  0.34650000  0.39100000  1.0
  H  H5  1  0.00970000  0.72290000  0.39900000  1.0
  H  H6  1  0.03150000  0.74630000  0.50800000  1.0
  H  H7  1  0.75970000  0.98770000  0.46970000  1.0
  H  H8  1  0.01950000  0.09570000  0.35290000  1.0
  H  H9  1  0.17330000  0.06370000  0.42380000  1.0
  H  H10  1  0.39310000  0.28590000  0.42180000  1.0
  H  H11  1  0.73730000  0.52110000  0.40720000  1.0
  H  H12  1  0.72600000  0.65860000  0.49300000  1.0
  H  H13  1  0.65350000  0.04790000  0.10900000  1.0
  H  H14  1  0.27710000  0.99030000  0.10100000  1.0
  H  H15  1  0.25370000  0.96850000  0.99200000  1.0
  H  H16  1  0.01230000  0.24030000  0.03030000  1.0
  H  H17  1  0.90430000  0.98050000  0.14710000  1.0
  H  H18  1  0.93630000  0.82670000  0.07620000  1.0
  H  H19  1  0.28590000  0.39310000  0.92180000  1.0
  H  H20  1  0.52110000  0.73730000  0.90720000  1.0
  H  H21  1  0.65860000  0.72600000  0.99300000  1.0
  H  H22  1  0.04790000  0.65350000  0.60900000  1.0
  H  H23  1  0.99030000  0.27710000  0.60100000  1.0
  H  H24  1  0.96850000  0.25370000  0.49200000  1.0
  H  H25  1  0.24030000  0.01230000  0.53030000  1.0
  H  H26  1  0.98050000  0.90430000  0.64710000  1.0
  H  H27  1  0.82670000  0.93630000  0.57620000  1.0
  H  H28  1  0.60690000  0.71410000  0.57820000  1.0
  H  H29  1  0.26270000  0.47890000  0.59280000  1.0
  H  H30  1  0.27400000  0.34140000  0.50700000  1.0
  H  H31  1  0.34650000  0.95210000  0.89100000  1.0
  H  H32  1  0.72290000  0.00970000  0.89900000  1.0
  H  H33  1  0.74630000  0.03150000  0.00800000  1.0
  H  H34  1  0.98770000  0.75970000  0.96970000  1.0
  H  H35  1  0.09570000  0.01950000  0.85290000  1.0
  H  H36  1  0.06370000  0.17330000  0.92380000  1.0
  C  C1  1  0.55648000  0.55034000  0.01061000  1.0
  C  C2  1  0.63888000  0.54022000  0.06352000  1.0
  C  C3  1  0.61074000  0.43486000  0.09356000  1.0
  C  C4  1  0.49821000  0.33499000  0.07201000  1.0
  C  C5  1  0.41628000  0.34172000  0.02103000  1.0
  C  C6  1  0.70201000  0.42499000  0.14875000  1.0
  C  C7  1  0.98783000  0.43901000  0.48224000  1.0
  C  C8  1  0.97003000  0.42689000  0.41511000  1.0
  C  C9  1  0.97865000  0.53059000  0.38502000  1.0
  C  C10  1  0.00320000  0.65180000  0.42015000  1.0
  C  C11  1  0.01769000  0.66571000  0.48490000  1.0
  C  C12  1  0.96833000  0.51885000  0.31436000  1.0
  C  C13  1  0.93750000  0.98814000  0.50697000  1.0
  C  C14  1  0.84376000  0.00524000  0.46132000  1.0
  C  C15  1  0.87429000  0.04691000  0.40542000  1.0
  C  C16  1  0.99894000  0.06846000  0.39169000  1.0
  C  C17  1  0.09081000  0.05039000  0.43405000  1.0
  C  C18  1  0.77685000  0.07675000  0.36012000  1.0
  C  C19  1  0.44966000  0.44352000  0.48939000  1.0
  C  C20  1  0.45978000  0.36112000  0.43648000  1.0
  C  C21  1  0.56514000  0.38926000  0.40644000  1.0
  C  C22  1  0.66501000  0.50179000  0.42799000  1.0
  C  C23  1  0.65828000  0.58372000  0.47897000  1.0
  C  C24  1  0.57501000  0.29799000  0.35125000  1.0
  C  C25  1  0.56099000  0.01217000  0.01776000  1.0
  C  C26  1  0.57311000  0.02997000  0.08489000  1.0
  C  C27  1  0.46941000  0.02135000  0.11498000  1.0
  C  C28  1  0.34820000  0.99680000  0.07985000  1.0
  C  C29  1  0.33429000  0.98231000  0.01510000  1.0
  C  C30  1  0.48115000  0.03167000  0.18564000  1.0
  C  C31  1  0.01186000  0.06250000  0.99303000  1.0
  C  C32  1  0.99476000  0.15624000  0.03868000  1.0
  C  C33  1  0.95309000  0.12571000  0.09458000  1.0
  C  C34  1  0.93154000  0.00106000  0.10831000  1.0
  C  C35  1  0.94961000  0.90919000  0.06595000  1.0
  C  C36  1  0.92325000  0.22315000  0.13988000  1.0
  C  C37  1  0.44352000  0.44966000  0.98939000  1.0
  C  C38  1  0.36112000  0.45978000  0.93648000  1.0
  C  C39  1  0.38926000  0.56514000  0.90644000  1.0
  C  C40  1  0.50179000  0.66501000  0.92799000  1.0
  C  C41  1  0.58372000  0.65828000  0.97897000  1.0
  C  C42  1  0.29799000  0.57501000  0.85125000  1.0
  C  C43  1  0.01217000  0.56099000  0.51776000  1.0
  C  C44  1  0.02997000  0.57311000  0.58489000  1.0
  C  C45  1  0.02135000  0.46941000  0.61498000  1.0
  C  C46  1  0.99680000  0.34820000  0.57985000  1.0
  C  C47  1  0.98231000  0.33429000  0.51510000  1.0
  C  C48  1  0.03167000  0.48115000  0.68564000  1.0
  C  C49  1  0.06250000  0.01186000  0.49303000  1.0
  C  C50  1  0.15624000  0.99476000  0.53868000  1.0
  C  C51  1  0.12571000  0.95309000  0.59458000  1.0
  C  C52  1  0.00106000  0.93154000  0.60831000  1.0
  C  C53  1  0.90919000  0.94961000  0.56595000  1.0
  C  C54  1  0.22315000  0.92325000  0.63988000  1.0
  C  C55  1  0.55034000  0.55648000  0.51061000  1.0
  C  C56  1  0.54022000  0.63888000  0.56352000  1.0
  C  C57  1  0.43486000  0.61074000  0.59356000  1.0
  C  C58  1  0.33499000  0.49821000  0.57201000  1.0
  C  C59  1  0.34172000  0.41628000  0.52103000  1.0
  C  C60  1  0.42499000  0.70201000  0.64875000  1.0
  C  C61  1  0.43901000  0.98783000  0.98224000  1.0
  C  C62  1  0.42689000  0.97003000  0.91511000  1.0
  C  C63  1  0.53059000  0.97865000  0.88502000  1.0
  C  C64  1  0.65180000  0.00320000  0.92015000  1.0
  C  C65  1  0.66571000  0.01769000  0.98490000  1.0
  C  C66  1  0.51885000  0.96833000  0.81436000  1.0
  C  C67  1  0.98814000  0.93750000  0.00697000  1.0
  C  C68  1  0.00524000  0.84376000  0.96132000  1.0
  C  C69  1  0.04691000  0.87429000  0.90542000  1.0
  C  C70  1  0.06846000  0.99894000  0.89169000  1.0
  C  C71  1  0.05039000  0.09081000  0.93405000  1.0
  C  C72  1  0.07675000  0.77685000  0.86012000  1.0
  O  O1  1  0.66827000  0.33111000  0.17737000  1.0
  O  O2  1  0.80524000  0.51294000  0.16133000  1.0
  O  O3  1  0.92488000  0.40950000  0.28110000  1.0
  O  O4  1  0.00801000  0.61597000  0.28900000  1.0
  O  O5  1  0.81753000  0.13585000  0.31621000  1.0
  O  O6  1  0.66369000  0.04087000  0.37004000  1.0
  O  O7  1  0.66889000  0.33173000  0.32263000  1.0
  O  O8  1  0.48706000  0.19476000  0.33867000  1.0
  O  O9  1  0.59050000  0.07512000  0.21890000  1.0
  O  O10  1  0.38403000  0.99199000  0.21100000  1.0
  O  O11  1  0.86415000  0.18247000  0.18379000  1.0
  O  O12  1  0.95913000  0.33631000  0.12996000  1.0
  O  O13  1  0.33173000  0.66889000  0.82263000  1.0
  O  O14  1  0.19476000  0.48706000  0.83867000  1.0
  O  O15  1  0.07512000  0.59050000  0.71890000  1.0
  O  O16  1  0.99199000  0.38403000  0.71100000  1.0
  O  O17  1  0.18247000  0.86415000  0.68379000  1.0
  O  O18  1  0.33631000  0.95913000  0.62996000  1.0
  O  O19  1  0.33111000  0.66827000  0.67737000  1.0
  O  O20  1  0.51294000  0.80524000  0.66133000  1.0
  O  O21  1  0.40950000  0.92488000  0.78110000  1.0
  O  O22  1  0.61597000  0.00801000  0.78900000  1.0
  O  O23  1  0.13585000  0.81753000  0.81621000  1.0
  O  O24  1  0.04087000  0.66369000  0.87004000  1.0
