# generated using pymatgen
data_ZnH14(C17O2)2
_symmetry_space_group_name_H-M   'P 1'
_cell_length_a   33.66333000
_cell_length_b   33.66328000
_cell_length_c   33.66337000
_cell_angle_alpha   89.90603000
_cell_angle_beta   89.90588000
_cell_angle_gamma   89.90603000
_symmetry_Int_Tables_number   1
_chemical_formula_structural   ZnH14(C17O2)2
_chemical_formula_sum   'Zn12 H168 C408 O48'
_cell_volume   38147.78639386
_cell_formula_units_Z   12
loop_
 _symmetry_equiv_pos_site_id
 _symmetry_equiv_pos_as_xyz
  1  'x, y, z'
loop_
 _atom_site_type_symbol
 _atom_site_label
 _atom_site_symmetry_multiplicity
 _atom_site_fract_x
 _atom_site_fract_y
 _atom_site_fract_z
 _atom_site_occupancy
  Zn  Zn1  1  0.37417000  0.62587000  0.87587000  1.0
  Zn  Zn2  1  0.62587000  0.87586000  0.37417000  1.0
  Zn  Zn3  1  0.87586000  0.37417000  0.62587000  1.0
  Zn  Zn4  1  0.12421000  0.12420000  0.12421000  1.0
  Zn  Zn5  1  0.42770000  0.57172000  0.92937000  1.0
  Zn  Zn6  1  0.57172000  0.92936000  0.42770000  1.0
  Zn  Zn7  1  0.92937000  0.42770000  0.57172000  1.0
  Zn  Zn8  1  0.07064000  0.07063000  0.07064000  1.0
  Zn  Zn9  1  0.32049000  0.67942000  0.82143000  1.0
  Zn  Zn10  1  0.67942000  0.82143000  0.32049000  1.0
  Zn  Zn11  1  0.17751000  0.17750000  0.17751000  1.0
  Zn  Zn12  1  0.82143000  0.32048000  0.67943000  1.0
  H  H1  1  0.33266000  0.68020000  0.96800000  1.0
  H  H2  1  0.43426000  0.64434000  0.03664000  1.0
  H  H3  1  0.36126000  0.74200000  0.07658000  1.0
  H  H4  1  0.26012000  0.82279000  0.05816000  1.0
  H  H5  1  0.16245000  0.86276000  0.98569000  1.0
  H  H6  1  0.17689000  0.80900000  0.93704000  1.0
  H  H7  1  0.23336000  0.76254000  0.94851000  1.0
  H  H8  1  0.66768000  0.82024000  0.46656000  1.0
  H  H9  1  0.56570000  0.85625000  0.53465000  1.0
  H  H10  1  0.63870000  0.75895000  0.57566000  1.0
  H  H11  1  0.73970000  0.67688000  0.55849000  1.0
  H  H12  1  0.83754000  0.63705000  0.48592000  1.0
  H  H13  1  0.82318000  0.69091000  0.43726000  1.0
  H  H14  1  0.76666000  0.73730000  0.44871000  1.0
  H  H15  1  0.83336000  0.32042000  0.53358000  1.0
  H  H16  1  0.93464000  0.35556000  0.46396000  1.0
  H  H17  1  0.86074000  0.25876000  0.42443000  1.0
  H  H18  1  0.76048000  0.17776000  0.44196000  1.0
  H  H19  1  0.66268000  0.13751000  0.51427000  1.0
  H  H20  1  0.67680000  0.19107000  0.56313000  1.0
  H  H21  1  0.73315000  0.23753000  0.55189000  1.0
  H  H22  1  0.16726000  0.17963000  0.03248000  1.0
  H  H23  1  0.06588000  0.14404000  0.96366000  1.0
  H  H24  1  0.13869000  0.24174000  0.92378000  1.0
  H  H25  1  0.23948000  0.32276000  0.94151000  1.0
  H  H26  1  0.33711000  0.36254000  0.01388000  1.0
  H  H27  1  0.32275000  0.30876000  0.06265000  1.0
  H  H28  1  0.26636000  0.26242000  0.05134000  1.0
  H  H29  1  0.68020000  0.96800000  0.33266000  1.0
  H  H30  1  0.64435000  0.03663000  0.43426000  1.0
  H  H31  1  0.74200000  0.07658000  0.36126000  1.0
  H  H32  1  0.82280000  0.05815000  0.26012000  1.0
  H  H33  1  0.86277000  0.98569000  0.16245000  1.0
  H  H34  1  0.80900000  0.93704000  0.17689000  1.0
  H  H35  1  0.76254000  0.94851000  0.23336000  1.0
  H  H36  1  0.82024000  0.46656000  0.66768000  1.0
  H  H37  1  0.85625000  0.53464000  0.56570000  1.0
  H  H38  1  0.75895000  0.57566000  0.63870000  1.0
  H  H39  1  0.67689000  0.55849000  0.73970000  1.0
  H  H40  1  0.63705000  0.48592000  0.83754000  1.0
  H  H41  1  0.69091000  0.43725000  0.82318000  1.0
  H  H42  1  0.73730000  0.44870000  0.76666000  1.0
  H  H43  1  0.32043000  0.53358000  0.83336000  1.0
  H  H44  1  0.35556000  0.46395000  0.93464000  1.0
  H  H45  1  0.25876000  0.42442000  0.86075000  1.0
  H  H46  1  0.17776000  0.44195000  0.76048000  1.0
  H  H47  1  0.13751000  0.51427000  0.66268000  1.0
  H  H48  1  0.19107000  0.56312000  0.67680000  1.0
  H  H49  1  0.23753000  0.55188000  0.73315000  1.0
  H  H50  1  0.17963000  0.03247000  0.16726000  1.0
  H  H51  1  0.14404000  0.96365000  0.06588000  1.0
  H  H52  1  0.24174000  0.92378000  0.13869000  1.0
  H  H53  1  0.32276000  0.94151000  0.23948000  1.0
  H  H54  1  0.36254000  0.01387000  0.33711000  1.0
  H  H55  1  0.30877000  0.06265000  0.32276000  1.0
  H  H56  1  0.26243000  0.05133000  0.26636000  1.0
  H  H57  1  0.96800000  0.33266000  0.68021000  1.0
  H  H58  1  0.03663000  0.43426000  0.64435000  1.0
  H  H59  1  0.07658000  0.36125000  0.74200000  1.0
  H  H60  1  0.05815000  0.26011000  0.82280000  1.0
  H  H61  1  0.98569000  0.16244000  0.86277000  1.0
  H  H62  1  0.93704000  0.17689000  0.80900000  1.0
  H  H63  1  0.94851000  0.23336000  0.76254000  1.0
  H  H64  1  0.46656000  0.66768000  0.82024000  1.0
  H  H65  1  0.53465000  0.56570000  0.85625000  1.0
  H  H66  1  0.57566000  0.63870000  0.75895000  1.0
  H  H67  1  0.55849000  0.73970000  0.67689000  1.0
  H  H68  1  0.48592000  0.83754000  0.63705000  1.0
  H  H69  1  0.43725000  0.82318000  0.69091000  1.0
  H  H70  1  0.44870000  0.76666000  0.73730000  1.0
  H  H71  1  0.53358000  0.83336000  0.32043000  1.0
  H  H72  1  0.46396000  0.93464000  0.35556000  1.0
  H  H73  1  0.42443000  0.86074000  0.25876000  1.0
  H  H74  1  0.44195000  0.76047000  0.17776000  1.0
  H  H75  1  0.51427000  0.66267000  0.13751000  1.0
  H  H76  1  0.56313000  0.67679000  0.19107000  1.0
  H  H77  1  0.55189000  0.73315000  0.23753000  1.0
  H  H78  1  0.03248000  0.16725000  0.17963000  1.0
  H  H79  1  0.96366000  0.06588000  0.14405000  1.0
  H  H80  1  0.92378000  0.13869000  0.24174000  1.0
  H  H81  1  0.94151000  0.23948000  0.32276000  1.0
  H  H82  1  0.01388000  0.33710000  0.36254000  1.0
  H  H83  1  0.06265000  0.32275000  0.30877000  1.0
  H  H84  1  0.05133000  0.26636000  0.26243000  1.0
  H  H85  1  0.42922000  0.58352000  0.78370000  1.0
  H  H86  1  0.39402000  0.68479000  0.71403000  1.0
  H  H87  1  0.49128000  0.61092000  0.67463000  1.0
  H  H88  1  0.57253000  0.51078000  0.69153000  1.0
  H  H89  1  0.61290000  0.41288000  0.76368000  1.0
  H  H90  1  0.55913000  0.42690000  0.81260000  1.0
  H  H91  1  0.51256000  0.48334000  0.80146000  1.0
  H  H92  1  0.57031000  0.91732000  0.28218000  1.0
  H  H93  1  0.60603000  0.81561000  0.21362000  1.0
  H  H94  1  0.50830000  0.88858000  0.17377000  1.0
  H  H95  1  0.42723000  0.98955000  0.19163000  1.0
  H  H96  1  0.38725000  0.08730000  0.26398000  1.0
  H  H97  1  0.44102000  0.07294000  0.31264000  1.0
  H  H98  1  0.48747000  0.01646000  0.30126000  1.0
  H  H99  1  0.07024000  0.08273000  0.21733000  1.0
  H  H100  1  0.10573000  0.18413000  0.28614000  1.0
  H  H101  1  0.00815000  0.11123000  0.32608000  1.0
  H  H102  1  0.92756000  0.01028000  0.30794000  1.0
  H  H103  1  0.88768000  0.91267000  0.23562000  1.0
  H  H104  1  0.94143000  0.92700000  0.18681000  1.0
  H  H105  1  0.98777000  0.98339000  0.19805000  1.0
  H  H106  1  0.92967000  0.41716000  0.71755000  1.0
  H  H107  1  0.89417000  0.31566000  0.78670000  1.0
  H  H108  1  0.99171000  0.38862000  0.82616000  1.0
  H  H109  1  0.07260000  0.48943000  0.80827000  1.0
  H  H110  1  0.11247000  0.58724000  0.73578000  1.0
  H  H111  1  0.05884000  0.57296000  0.68706000  1.0
  H  H112  1  0.01250000  0.51651000  0.69848000  1.0
  H  H113  1  0.71755000  0.92966000  0.41717000  1.0
  H  H114  1  0.78670000  0.89417000  0.31566000  1.0
  H  H115  1  0.82616000  0.99170000  0.38862000  1.0
  H  H116  1  0.80827000  0.07260000  0.48943000  1.0
  H  H117  1  0.73578000  0.11247000  0.58724000  1.0
  H  H118  1  0.68706000  0.05883000  0.57297000  1.0
  H  H119  1  0.69848000  0.01250000  0.51652000  1.0
  H  H120  1  0.21733000  0.07023000  0.08273000  1.0
  H  H121  1  0.28614000  0.10572000  0.18414000  1.0
  H  H122  1  0.32608000  0.00814000  0.11124000  1.0
  H  H123  1  0.30794000  0.92756000  0.01029000  1.0
  H  H124  1  0.23562000  0.88768000  0.91268000  1.0
  H  H125  1  0.18680000  0.94143000  0.92700000  1.0
  H  H126  1  0.19805000  0.98776000  0.98340000  1.0
  H  H127  1  0.28218000  0.57031000  0.91732000  1.0
  H  H128  1  0.21362000  0.60603000  0.81561000  1.0
  H  H129  1  0.17377000  0.50830000  0.88859000  1.0
  H  H130  1  0.19163000  0.42723000  0.98955000  1.0
  H  H131  1  0.26397000  0.38724000  0.08731000  1.0
  H  H132  1  0.31264000  0.44101000  0.07295000  1.0
  H  H133  1  0.30126000  0.48746000  0.01646000  1.0
  H  H134  1  0.78370000  0.42922000  0.58352000  1.0
  H  H135  1  0.71403000  0.39402000  0.68479000  1.0
  H  H136  1  0.67463000  0.49128000  0.61092000  1.0
  H  H137  1  0.69153000  0.57253000  0.51078000  1.0
  H  H138  1  0.76368000  0.61290000  0.41288000  1.0
  H  H139  1  0.81260000  0.55913000  0.42690000  1.0
  H  H140  1  0.80146000  0.51256000  0.48334000  1.0
  H  H141  1  0.08273000  0.21732000  0.07024000  1.0
  H  H142  1  0.18413000  0.28613000  0.10573000  1.0
  H  H143  1  0.11124000  0.32608000  0.00815000  1.0
  H  H144  1  0.01029000  0.30793000  0.92757000  1.0
  H  H145  1  0.91268000  0.23562000  0.88768000  1.0
  H  H146  1  0.92700000  0.18680000  0.94143000  1.0
  H  H147  1  0.98340000  0.19805000  0.98777000  1.0
  H  H148  1  0.41717000  0.71755000  0.92967000  1.0
  H  H149  1  0.31566000  0.78670000  0.89418000  1.0
  H  H150  1  0.38862000  0.82616000  0.99171000  1.0
  H  H151  1  0.48943000  0.80827000  0.07261000  1.0
  H  H152  1  0.58724000  0.73577000  0.11248000  1.0
  H  H153  1  0.57296000  0.68706000  0.05884000  1.0
  H  H154  1  0.51651000  0.69847000  0.01250000  1.0
  H  H155  1  0.58352000  0.78370000  0.42922000  1.0
  H  H156  1  0.68479000  0.71403000  0.39402000  1.0
  H  H157  1  0.61092000  0.67462000  0.49128000  1.0
  H  H158  1  0.51078000  0.69153000  0.57253000  1.0
  H  H159  1  0.41288000  0.76368000  0.61290000  1.0
  H  H160  1  0.42690000  0.81259000  0.55913000  1.0
  H  H161  1  0.48334000  0.80146000  0.51256000  1.0
  H  H162  1  0.91732000  0.28218000  0.57031000  1.0
  H  H163  1  0.81561000  0.21362000  0.60603000  1.0
  H  H164  1  0.88859000  0.17377000  0.50830000  1.0
  H  H165  1  0.98955000  0.19163000  0.42723000  1.0
  H  H166  1  0.08730000  0.26397000  0.38725000  1.0
  H  H167  1  0.07294000  0.31264000  0.44102000  1.0
  H  H168  1  0.01646000  0.30126000  0.48747000  1.0
  C  C1  1  0.35122000  0.68408000  0.99408000  1.0
  C  C2  1  0.38423000  0.65939000  0.99949000  1.0
  C  C3  1  0.40879000  0.66382000  0.03275000  1.0
  C  C4  1  0.40062000  0.69364000  0.06095000  1.0
  C  C5  1  0.36753000  0.71866000  0.05520000  1.0
  C  C6  1  0.34269000  0.71413000  0.02191000  1.0
  C  C7  1  0.39362000  0.62903000  0.96878000  1.0
  C  C8  1  0.31011000  0.74011000  0.01604000  1.0
  C  C9  1  0.28234000  0.76288000  0.01083000  1.0
  C  C10  1  0.24192000  0.81971000  0.03171000  1.0
  C  C11  1  0.21050000  0.84650000  0.02501000  1.0
  C  C12  1  0.18672000  0.84205000  0.99077000  1.0
  C  C13  1  0.19502000  0.81195000  0.96359000  1.0
  C  C14  1  0.22656000  0.78579000  0.96986000  1.0
  C  C15  1  0.25025000  0.78930000  0.00428000  1.0
  C  C16  1  0.44819000  0.70414000  0.12222000  1.0
  C  C17  1  0.42587000  0.69906000  0.09412000  1.0
  C  C18  1  0.64905000  0.81644000  0.49269000  1.0
  C  C19  1  0.61594000  0.84110000  0.49783000  1.0
  C  C20  1  0.59122000  0.83678000  0.53109000  1.0
  C  C21  1  0.59931000  0.80714000  0.55960000  1.0
  C  C22  1  0.63248000  0.78216000  0.55406000  1.0
  C  C23  1  0.65752000  0.78652000  0.52079000  1.0
  C  C24  1  0.60650000  0.87134000  0.46683000  1.0
  C  C25  1  0.69014000  0.76039000  0.51539000  1.0
  C  C26  1  0.71772000  0.73719000  0.51097000  1.0
  C  C27  1  0.75796000  0.67999000  0.53202000  1.0
  C  C28  1  0.78939000  0.65314000  0.52532000  1.0
  C  C29  1  0.81321000  0.65770000  0.49101000  1.0
  C  C30  1  0.80496000  0.68786000  0.46381000  1.0
  C  C31  1  0.77342000  0.71402000  0.47009000  1.0
  C  C32  1  0.74971000  0.71052000  0.50459000  1.0
  C  C33  1  0.55200000  0.79632000  0.62125000  1.0
  C  C34  1  0.57406000  0.80173000  0.59291000  1.0
  C  C35  1  0.85169000  0.31645000  0.50727000  1.0
  C  C36  1  0.88485000  0.34086000  0.50158000  1.0
  C  C37  1  0.90908000  0.33630000  0.46803000  1.0
  C  C38  1  0.90053000  0.30665000  0.43983000  1.0
  C  C39  1  0.86734000  0.28193000  0.44586000  1.0
  C  C40  1  0.84272000  0.28655000  0.47942000  1.0
  C  C41  1  0.89500000  0.37106000  0.53221000  1.0
  C  C42  1  0.81003000  0.26068000  0.48521000  1.0
  C  C43  1  0.78238000  0.23766000  0.48972000  1.0
  C  C44  1  0.74221000  0.18075000  0.46843000  1.0
  C  C45  1  0.71084000  0.15390000  0.47502000  1.0
  C  C46  1  0.68692000  0.15822000  0.50927000  1.0
  C  C47  1  0.69504000  0.18821000  0.53657000  1.0
  C  C48  1  0.72652000  0.21439000  0.53042000  1.0
  C  C49  1  0.75036000  0.21108000  0.49598000  1.0
  C  C50  1  0.94783000  0.29589000  0.37823000  1.0
  C  C51  1  0.92556000  0.30110000  0.40642000  1.0
  C  C52  1  0.14878000  0.18358000  0.00633000  1.0
  C  C53  1  0.11583000  0.15890000  0.00086000  1.0
  C  C54  1  0.09133000  0.16344000  0.96758000  1.0
  C  C55  1  0.09948000  0.19335000  0.93941000  1.0
  C  C56  1  0.13247000  0.21834000  0.94519000  1.0
  C  C57  1  0.15731000  0.21372000  0.97850000  1.0
  C  C58  1  0.10636000  0.12852000  0.03164000  1.0
  C  C59  1  0.18984000  0.23972000  0.98424000  1.0
  C  C60  1  0.21748000  0.26266000  0.98902000  1.0
  C  C61  1  0.25769000  0.31965000  0.96797000  1.0
  C  C62  1  0.28905000  0.34643000  0.97460000  1.0
  C  C63  1  0.31284000  0.34190000  0.00886000  1.0
  C  C64  1  0.30461000  0.31178000  0.03611000  1.0
  C  C65  1  0.27313000  0.28565000  0.02990000  1.0
  C  C66  1  0.24945000  0.28918000  0.99544000  1.0
  C  C67  1  0.05178000  0.20371000  0.87821000  1.0
  C  C68  1  0.07423000  0.19879000  0.90624000  1.0
  C  C69  1  0.68408000  0.99408000  0.35122000  1.0
  C  C70  1  0.65939000  0.99949000  0.38423000  1.0
  C  C71  1  0.66382000  0.03275000  0.40879000  1.0
  C  C72  1  0.69364000  0.06095000  0.40062000  1.0
  C  C73  1  0.71866000  0.05519000  0.36754000  1.0
  C  C74  1  0.71414000  0.02191000  0.34269000  1.0
  C  C75  1  0.62903000  0.96877000  0.39362000  1.0
  C  C76  1  0.74012000  0.01604000  0.31011000  1.0
  C  C77  1  0.76289000  0.01083000  0.28234000  1.0
  C  C78  1  0.81972000  0.03170000  0.24192000  1.0
  C  C79  1  0.84650000  0.02501000  0.21050000  1.0
  C  C80  1  0.84206000  0.99077000  0.18672000  1.0
  C  C81  1  0.81195000  0.96359000  0.19502000  1.0
  C  C82  1  0.78579000  0.96986000  0.22656000  1.0
  C  C83  1  0.78931000  0.00428000  0.25025000  1.0
  C  C84  1  0.70414000  0.12221000  0.44820000  1.0
  C  C85  1  0.69906000  0.09412000  0.42587000  1.0
  C  C86  1  0.81644000  0.49268000  0.64905000  1.0
  C  C87  1  0.84110000  0.49783000  0.61594000  1.0
  C  C88  1  0.83678000  0.53109000  0.59122000  1.0
  C  C89  1  0.80714000  0.55960000  0.59931000  1.0
  C  C90  1  0.78216000  0.55406000  0.63248000  1.0
  C  C91  1  0.78652000  0.52079000  0.65752000  1.0
  C  C92  1  0.87135000  0.46683000  0.60650000  1.0
  C  C93  1  0.76039000  0.51539000  0.69014000  1.0
  C  C94  1  0.73720000  0.51097000  0.71772000  1.0
  C  C95  1  0.67999000  0.53202000  0.75796000  1.0
  C  C96  1  0.65314000  0.52531000  0.78939000  1.0
  C  C97  1  0.65770000  0.49101000  0.81321000  1.0
  C  C98  1  0.68786000  0.46380000  0.80496000  1.0
  C  C99  1  0.71403000  0.47009000  0.77343000  1.0
  C  C100  1  0.71052000  0.50459000  0.74971000  1.0
  C  C101  1  0.79633000  0.62125000  0.55200000  1.0
  C  C102  1  0.80173000  0.59291000  0.57406000  1.0
  C  C103  1  0.31645000  0.50727000  0.85169000  1.0
  C  C104  1  0.34086000  0.50158000  0.88485000  1.0
  C  C105  1  0.33631000  0.46803000  0.90908000  1.0
  C  C106  1  0.30665000  0.43983000  0.90053000  1.0
  C  C107  1  0.28193000  0.44585000  0.86734000  1.0
  C  C108  1  0.28655000  0.47941000  0.84272000  1.0
  C  C109  1  0.37106000  0.53221000  0.89500000  1.0
  C  C110  1  0.26068000  0.48521000  0.81003000  1.0
  C  C111  1  0.23767000  0.48972000  0.78238000  1.0
  C  C112  1  0.18075000  0.46843000  0.74221000  1.0
  C  C113  1  0.15390000  0.47501000  0.71085000  1.0
  C  C114  1  0.15822000  0.50927000  0.68693000  1.0
  C  C115  1  0.18821000  0.53657000  0.69504000  1.0
  C  C116  1  0.21439000  0.53041000  0.72652000  1.0
  C  C117  1  0.21108000  0.49597000  0.75036000  1.0
  C  C118  1  0.29589000  0.37823000  0.94783000  1.0
  C  C119  1  0.30110000  0.40642000  0.92556000  1.0
  C  C120  1  0.18359000  0.00632000  0.14878000  1.0
  C  C121  1  0.15891000  0.00086000  0.11584000  1.0
  C  C122  1  0.16344000  0.96758000  0.09133000  1.0
  C  C123  1  0.19335000  0.93941000  0.09948000  1.0
  C  C124  1  0.21835000  0.94518000  0.13247000  1.0
  C  C125  1  0.21372000  0.97849000  0.15731000  1.0
  C  C126  1  0.12853000  0.03163000  0.10637000  1.0
  C  C127  1  0.23972000  0.98423000  0.18984000  1.0
  C  C128  1  0.26266000  0.98902000  0.21748000  1.0
  C  C129  1  0.31965000  0.96796000  0.25769000  1.0
  C  C130  1  0.34644000  0.97460000  0.28905000  1.0
  C  C131  1  0.34190000  0.00885000  0.31284000  1.0
  C  C132  1  0.31178000  0.03610000  0.30461000  1.0
  C  C133  1  0.28566000  0.02989000  0.27313000  1.0
  C  C134  1  0.28918000  0.99544000  0.24945000  1.0
  C  C135  1  0.20371000  0.87820000  0.05178000  1.0
  C  C136  1  0.19880000  0.90624000  0.07424000  1.0
  C  C137  1  0.99408000  0.35122000  0.68408000  1.0
  C  C138  1  0.99949000  0.38422000  0.65940000  1.0
  C  C139  1  0.03275000  0.40878000  0.66382000  1.0
  C  C140  1  0.06095000  0.40062000  0.69364000  1.0
  C  C141  1  0.05520000  0.36753000  0.71866000  1.0
  C  C142  1  0.02191000  0.34269000  0.71414000  1.0
  C  C143  1  0.96878000  0.39362000  0.62903000  1.0
  C  C144  1  0.01604000  0.31010000  0.74012000  1.0
  C  C145  1  0.01083000  0.28234000  0.76289000  1.0
  C  C146  1  0.03170000  0.24192000  0.81972000  1.0
  C  C147  1  0.02501000  0.21049000  0.84650000  1.0
  C  C148  1  0.99077000  0.18672000  0.84206000  1.0
  C  C149  1  0.96359000  0.19502000  0.81195000  1.0
  C  C150  1  0.96986000  0.22656000  0.78579000  1.0
  C  C151  1  0.00428000  0.25024000  0.78931000  1.0
  C  C152  1  0.12222000  0.44819000  0.70414000  1.0
  C  C153  1  0.09412000  0.42587000  0.69906000  1.0
  C  C154  1  0.49269000  0.64905000  0.81645000  1.0
  C  C155  1  0.49783000  0.61594000  0.84110000  1.0
  C  C156  1  0.53109000  0.59122000  0.83678000  1.0
  C  C157  1  0.55960000  0.59931000  0.80714000  1.0
  C  C158  1  0.55406000  0.63248000  0.78216000  1.0
  C  C159  1  0.52079000  0.65752000  0.78652000  1.0
  C  C160  1  0.46683000  0.60649000  0.87135000  1.0
  C  C161  1  0.51539000  0.69014000  0.76039000  1.0
  C  C162  1  0.51097000  0.71772000  0.73720000  1.0
  C  C163  1  0.53202000  0.75796000  0.67999000  1.0
  C  C164  1  0.52531000  0.78938000  0.65314000  1.0
  C  C165  1  0.49101000  0.81321000  0.65770000  1.0
  C  C166  1  0.46381000  0.80496000  0.68786000  1.0
  C  C167  1  0.47009000  0.77342000  0.71403000  1.0
  C  C168  1  0.50459000  0.74970000  0.71052000  1.0
  C  C169  1  0.62125000  0.55200000  0.79633000  1.0
  C  C170  1  0.59291000  0.57406000  0.80173000  1.0
  C  C171  1  0.50727000  0.85168000  0.31645000  1.0
  C  C172  1  0.50158000  0.88484000  0.34086000  1.0
  C  C173  1  0.46803000  0.90908000  0.33631000  1.0
  C  C174  1  0.43983000  0.90053000  0.30665000  1.0
  C  C175  1  0.44586000  0.86733000  0.28194000  1.0
  C  C176  1  0.47942000  0.84272000  0.28655000  1.0
  C  C177  1  0.53221000  0.89500000  0.37106000  1.0
  C  C178  1  0.48521000  0.81003000  0.26068000  1.0
  C  C179  1  0.48972000  0.78237000  0.23767000  1.0
  C  C180  1  0.46843000  0.74220000  0.18075000  1.0
  C  C181  1  0.47501000  0.71084000  0.15390000  1.0
  C  C182  1  0.50927000  0.68692000  0.15822000  1.0
  C  C183  1  0.53657000  0.69503000  0.18821000  1.0
  C  C184  1  0.53041000  0.72652000  0.21439000  1.0
  C  C185  1  0.49598000  0.75035000  0.21108000  1.0
  C  C186  1  0.37823000  0.94782000  0.29589000  1.0
  C  C187  1  0.40642000  0.92555000  0.30110000  1.0
  C  C188  1  0.00633000  0.14877000  0.18359000  1.0
  C  C189  1  0.00086000  0.11583000  0.15891000  1.0
  C  C190  1  0.96758000  0.09132000  0.16344000  1.0
  C  C191  1  0.93941000  0.09947000  0.19336000  1.0
  C  C192  1  0.94518000  0.13247000  0.21835000  1.0
  C  C193  1  0.97850000  0.15731000  0.21372000  1.0
  C  C194  1  0.03164000  0.10636000  0.12853000  1.0
  C  C195  1  0.98424000  0.18984000  0.23972000  1.0
  C  C196  1  0.98902000  0.21747000  0.26266000  1.0
  C  C197  1  0.96796000  0.25769000  0.31965000  1.0
  C  C198  1  0.97460000  0.28905000  0.34644000  1.0
  C  C199  1  0.00885000  0.31284000  0.34190000  1.0
  C  C200  1  0.03610000  0.30460000  0.31178000  1.0
  C  C201  1  0.02990000  0.27312000  0.28566000  1.0
  C  C202  1  0.99544000  0.24945000  0.28918000  1.0
  C  C203  1  0.87821000  0.05178000  0.20371000  1.0
  C  C204  1  0.90624000  0.07423000  0.19880000  1.0
  C  C205  1  0.43326000  0.60182000  0.75739000  1.0
  C  C206  1  0.40861000  0.63486000  0.75166000  1.0
  C  C207  1  0.41332000  0.65922000  0.71819000  1.0
  C  C208  1  0.44321000  0.65073000  0.69005000  1.0
  C  C209  1  0.46799000  0.61752000  0.69604000  1.0
  C  C210  1  0.46330000  0.59289000  0.72957000  1.0
  C  C211  1  0.37793000  0.64439000  0.78222000  1.0
  C  C212  1  0.48923000  0.56018000  0.73525000  1.0
  C  C213  1  0.51242000  0.53257000  0.73945000  1.0
  C  C214  1  0.56954000  0.49246000  0.71798000  1.0
  C  C215  1  0.59646000  0.46108000  0.72451000  1.0
  C  C216  1  0.59212000  0.43713000  0.75875000  1.0
  C  C217  1  0.56203000  0.44520000  0.78609000  1.0
  C  C218  1  0.53578000  0.47670000  0.77999000  1.0
  C  C219  1  0.53913000  0.50057000  0.74557000  1.0
  C  C220  1  0.45427000  0.69774000  0.62826000  1.0
  C  C221  1  0.44889000  0.67568000  0.65660000  1.0
  C  C222  1  0.56639000  0.89875000  0.25612000  1.0
  C  C223  1  0.59110000  0.86575000  0.25071000  1.0
  C  C224  1  0.58660000  0.84112000  0.21751000  1.0
  C  C225  1  0.55671000  0.84925000  0.18936000  1.0
  C  C226  1  0.53169000  0.88233000  0.19512000  1.0
  C  C227  1  0.53627000  0.90723000  0.22835000  1.0
  C  C228  1  0.62151000  0.85645000  0.28146000  1.0
  C  C229  1  0.51025000  0.93982000  0.23413000  1.0
  C  C230  1  0.48730000  0.96749000  0.23904000  1.0
  C  C231  1  0.43031000  0.00776000  0.21807000  1.0
  C  C232  1  0.40350000  0.03918000  0.22473000  1.0
  C  C233  1  0.40795000  0.06301000  0.25894000  1.0
  C  C234  1  0.43805000  0.05476000  0.28613000  1.0
  C  C235  1  0.46422000  0.02322000  0.27990000  1.0
  C  C236  1  0.46074000  0.99951000  0.24550000  1.0
  C  C237  1  0.54591000  0.80181000  0.12805000  1.0
  C  C238  1  0.55120000  0.82403000  0.15618000  1.0
  C  C239  1  0.06621000  0.10123000  0.24345000  1.0
  C  C240  1  0.09079000  0.13422000  0.24886000  1.0
  C  C241  1  0.08630000  0.15870000  0.28219000  1.0
  C  C242  1  0.05646000  0.15049000  0.31041000  1.0
  C  C243  1  0.03150000  0.11747000  0.30464000  1.0
  C  C244  1  0.03614000  0.09264000  0.27133000  1.0
  C  C245  1  0.12112000  0.14382000  0.21810000  1.0
  C  C246  1  0.01027000  0.06004000  0.26553000  1.0
  C  C247  1  0.98750000  0.03234000  0.26044000  1.0
  C  C248  1  0.93064000  0.99208000  0.28148000  1.0
  C  C249  1  0.90388000  0.96071000  0.27489000  1.0
  C  C250  1  0.90834000  0.93692000  0.24062000  1.0
  C  C251  1  0.93842000  0.94517000  0.21334000  1.0
  C  C252  1  0.96454000  0.97667000  0.21950000  1.0
  C  C253  1  0.96105000  0.00034000  0.25395000  1.0
  C  C254  1  0.04600000  0.19798000  0.37176000  1.0
  C  C255  1  0.05103000  0.17566000  0.34365000  1.0
  C  C256  1  0.93365000  0.39866000  0.74372000  1.0
  C  C257  1  0.90902000  0.36567000  0.74933000  1.0
  C  C258  1  0.91355000  0.34114000  0.78266000  1.0
  C  C259  1  0.94340000  0.34932000  0.81076000  1.0
  C  C260  1  0.96836000  0.38235000  0.80482000  1.0
  C  C261  1  0.96375000  0.40721000  0.77146000  1.0
  C  C262  1  0.87875000  0.35621000  0.71857000  1.0
  C  C263  1  0.98971000  0.43979000  0.76561000  1.0
  C  C264  1  0.01262000  0.46746000  0.76081000  1.0
  C  C265  1  0.06954000  0.50769000  0.78180000  1.0
  C  C266  1  0.09632000  0.53907000  0.77510000  1.0
  C  C267  1  0.09184000  0.56295000  0.74083000  1.0
  C  C268  1  0.06179000  0.55475000  0.71362000  1.0
  C  C269  1  0.03567000  0.52324000  0.71989000  1.0
  C  C270  1  0.03913000  0.49949000  0.75436000  1.0
  C  C271  1  0.95390000  0.30174000  0.87217000  1.0
  C  C272  1  0.94887000  0.32412000  0.84404000  1.0
  C  C273  1  0.74372000  0.93365000  0.39866000  1.0
  C  C274  1  0.74933000  0.90902000  0.36567000  1.0
  C  C275  1  0.78266000  0.91354000  0.34114000  1.0
  C  C276  1  0.81076000  0.94340000  0.34933000  1.0
  C  C277  1  0.80482000  0.96836000  0.38236000  1.0
  C  C278  1  0.77145000  0.96375000  0.40721000  1.0
  C  C279  1  0.71857000  0.87875000  0.35621000  1.0
  C  C280  1  0.76561000  0.98971000  0.43979000  1.0
  C  C281  1  0.76081000  0.01262000  0.46747000  1.0
  C  C282  1  0.78180000  0.06953000  0.50769000  1.0
  C  C283  1  0.77510000  0.09631000  0.53908000  1.0
  C  C284  1  0.74083000  0.09184000  0.56295000  1.0
  C  C285  1  0.71362000  0.06179000  0.55476000  1.0
  C  C286  1  0.71989000  0.03567000  0.52325000  1.0
  C  C287  1  0.75436000  0.03913000  0.49949000  1.0
  C  C288  1  0.87217000  0.95390000  0.30174000  1.0
  C  C289  1  0.84403000  0.94886000  0.32412000  1.0
  C  C290  1  0.24345000  0.06620000  0.10124000  1.0
  C  C291  1  0.24886000  0.09078000  0.13423000  1.0
  C  C292  1  0.28219000  0.08630000  0.15871000  1.0
  C  C293  1  0.31041000  0.05646000  0.15050000  1.0
  C  C294  1  0.30464000  0.03149000  0.11748000  1.0
  C  C295  1  0.27133000  0.03614000  0.09265000  1.0
  C  C296  1  0.21810000  0.12112000  0.14382000  1.0
  C  C297  1  0.26553000  0.01027000  0.06005000  1.0
  C  C298  1  0.26044000  0.98750000  0.03235000  1.0
  C  C299  1  0.28148000  0.93064000  0.99208000  1.0
  C  C300  1  0.27489000  0.90388000  0.96071000  1.0
  C  C301  1  0.24062000  0.90834000  0.93692000  1.0
  C  C302  1  0.21334000  0.93842000  0.94517000  1.0
  C  C303  1  0.21950000  0.96454000  0.97667000  1.0
  C  C304  1  0.25395000  0.96104000  0.00035000  1.0
  C  C305  1  0.37176000  0.04599000  0.19799000  1.0
  C  C306  1  0.34365000  0.05103000  0.17567000  1.0
  C  C307  1  0.25612000  0.56639000  0.89875000  1.0
  C  C308  1  0.25071000  0.59110000  0.86575000  1.0
  C  C309  1  0.21751000  0.58660000  0.84112000  1.0
  C  C310  1  0.18936000  0.55670000  0.84926000  1.0
  C  C311  1  0.19512000  0.53168000  0.88233000  1.0
  C  C312  1  0.22835000  0.53627000  0.90723000  1.0
  C  C313  1  0.28146000  0.62150000  0.85645000  1.0
  C  C314  1  0.23412000  0.51025000  0.93982000  1.0
  C  C315  1  0.23904000  0.48730000  0.96749000  1.0
  C  C316  1  0.21807000  0.43030000  0.00777000  1.0
  C  C317  1  0.22473000  0.40350000  0.03919000  1.0
  C  C318  1  0.25894000  0.40794000  0.06302000  1.0
  C  C319  1  0.28613000  0.43805000  0.05477000  1.0
  C  C320  1  0.27990000  0.46422000  0.02323000  1.0
  C  C321  1  0.24549000  0.46074000  0.99951000  1.0
  C  C322  1  0.12805000  0.54591000  0.80182000  1.0
  C  C323  1  0.15618000  0.55120000  0.82404000  1.0
  C  C324  1  0.75739000  0.43325000  0.60182000  1.0
  C  C325  1  0.75166000  0.40861000  0.63487000  1.0
  C  C326  1  0.71819000  0.41332000  0.65923000  1.0
  C  C327  1  0.69005000  0.44321000  0.65073000  1.0
  C  C328  1  0.69604000  0.46799000  0.61752000  1.0
  C  C329  1  0.72957000  0.46330000  0.59290000  1.0
  C  C330  1  0.78222000  0.37793000  0.64439000  1.0
  C  C331  1  0.73525000  0.48923000  0.56018000  1.0
  C  C332  1  0.73945000  0.51242000  0.53257000  1.0
  C  C333  1  0.71798000  0.56954000  0.49247000  1.0
  C  C334  1  0.72451000  0.59646000  0.46108000  1.0
  C  C335  1  0.75875000  0.59211000  0.43713000  1.0
  C  C336  1  0.78609000  0.56203000  0.44520000  1.0
  C  C337  1  0.77999000  0.53578000  0.47670000  1.0
  C  C338  1  0.74557000  0.53913000  0.50057000  1.0
  C  C339  1  0.62826000  0.45427000  0.69774000  1.0
  C  C340  1  0.65660000  0.44889000  0.67569000  1.0
  C  C341  1  0.10123000  0.24344000  0.06621000  1.0
  C  C342  1  0.13423000  0.24885000  0.09079000  1.0
  C  C343  1  0.15870000  0.28218000  0.08630000  1.0
  C  C344  1  0.15050000  0.31040000  0.05646000  1.0
  C  C345  1  0.11748000  0.30463000  0.03150000  1.0
  C  C346  1  0.09265000  0.27132000  0.03614000  1.0
  C  C347  1  0.14382000  0.21810000  0.12112000  1.0
  C  C348  1  0.06005000  0.26553000  0.01027000  1.0
  C  C349  1  0.03234000  0.26043000  0.98750000  1.0
  C  C350  1  0.99208000  0.28148000  0.93064000  1.0
  C  C351  1  0.96071000  0.27489000  0.90388000  1.0
  C  C352  1  0.93692000  0.24062000  0.90835000  1.0
  C  C353  1  0.94517000  0.21333000  0.93843000  1.0
  C  C354  1  0.97667000  0.21950000  0.96454000  1.0
  C  C355  1  0.00035000  0.25395000  0.96105000  1.0
  C  C356  1  0.19799000  0.37176000  0.04600000  1.0
  C  C357  1  0.17566000  0.34364000  0.05103000  1.0
  C  C358  1  0.39866000  0.74372000  0.93365000  1.0
  C  C359  1  0.36567000  0.74932000  0.90902000  1.0
  C  C360  1  0.34114000  0.78266000  0.91355000  1.0
  C  C361  1  0.34932000  0.81076000  0.94340000  1.0
  C  C362  1  0.38235000  0.80482000  0.96836000  1.0
  C  C363  1  0.40721000  0.77145000  0.96375000  1.0
  C  C364  1  0.35621000  0.71857000  0.87875000  1.0
  C  C365  1  0.43979000  0.76561000  0.98971000  1.0
  C  C366  1  0.46747000  0.76081000  0.01263000  1.0
  C  C367  1  0.50769000  0.78179000  0.06954000  1.0
  C  C368  1  0.53908000  0.77509000  0.09632000  1.0
  C  C369  1  0.56295000  0.74083000  0.09184000  1.0
  C  C370  1  0.55476000  0.71362000  0.06179000  1.0
  C  C371  1  0.52324000  0.71988000  0.03567000  1.0
  C  C372  1  0.49949000  0.75436000  0.03913000  1.0
  C  C373  1  0.30174000  0.87217000  0.95390000  1.0
  C  C374  1  0.32412000  0.84403000  0.94887000  1.0
  C  C375  1  0.60182000  0.75738000  0.43326000  1.0
  C  C376  1  0.63486000  0.75165000  0.40861000  1.0
  C  C377  1  0.65923000  0.71819000  0.41332000  1.0
  C  C378  1  0.65073000  0.69005000  0.44322000  1.0
  C  C379  1  0.61752000  0.69604000  0.46799000  1.0
  C  C380  1  0.59289000  0.72957000  0.46330000  1.0
  C  C381  1  0.64439000  0.78222000  0.37793000  1.0
  C  C382  1  0.56018000  0.73525000  0.48923000  1.0
  C  C383  1  0.53257000  0.73945000  0.51242000  1.0
  C  C384  1  0.49247000  0.71798000  0.56955000  1.0
  C  C385  1  0.46108000  0.72451000  0.59646000  1.0
  C  C386  1  0.43713000  0.75875000  0.59212000  1.0
  C  C387  1  0.44520000  0.78608000  0.56203000  1.0
  C  C388  1  0.47670000  0.77998000  0.53579000  1.0
  C  C389  1  0.50057000  0.74557000  0.53913000  1.0
  C  C390  1  0.69774000  0.62826000  0.45427000  1.0
  C  C391  1  0.67569000  0.65660000  0.44889000  1.0
  C  C392  1  0.89875000  0.25611000  0.56639000  1.0
  C  C393  1  0.86575000  0.25071000  0.59110000  1.0
  C  C394  1  0.84112000  0.21750000  0.58660000  1.0
  C  C395  1  0.84926000  0.18935000  0.55671000  1.0
  C  C396  1  0.88233000  0.19512000  0.53169000  1.0
  C  C397  1  0.90723000  0.22835000  0.53627000  1.0
  C  C398  1  0.85645000  0.28146000  0.62151000  1.0
  C  C399  1  0.93982000  0.23412000  0.51025000  1.0
  C  C400  1  0.96749000  0.23904000  0.48730000  1.0
  C  C401  1  0.00776000  0.21806000  0.43031000  1.0
  C  C402  1  0.03919000  0.22472000  0.40350000  1.0
  C  C403  1  0.06301000  0.25893000  0.40795000  1.0
  C  C404  1  0.05476000  0.28612000  0.43805000  1.0
  C  C405  1  0.02323000  0.27989000  0.46422000  1.0
  C  C406  1  0.99951000  0.24549000  0.46075000  1.0
  C  C407  1  0.80182000  0.12804000  0.54591000  1.0
  C  C408  1  0.82404000  0.15618000  0.55120000  1.0
  O  O1  1  0.37115000  0.62515000  0.93875000  1.0
  O  O2  1  0.42485000  0.60725000  0.97446000  1.0
  O  O3  1  0.62907000  0.87500000  0.43683000  1.0
  O  O4  1  0.57517000  0.89302000  0.47238000  1.0
  O  O5  1  0.87310000  0.37492000  0.56273000  1.0
  O  O6  1  0.92627000  0.39265000  0.52595000  1.0
  O  O7  1  0.12880000  0.12492000  0.06170000  1.0
  O  O8  1  0.07518000  0.10678000  0.02586000  1.0
  O  O9  1  0.62515000  0.93875000  0.37115000  1.0
  O  O10  1  0.60725000  0.97446000  0.42485000  1.0
  O  O11  1  0.87501000  0.43683000  0.62907000  1.0
  O  O12  1  0.89302000  0.47238000  0.57517000  1.0
  O  O13  1  0.37492000  0.56273000  0.87310000  1.0
  O  O14  1  0.39265000  0.52595000  0.92627000  1.0
  O  O15  1  0.12493000  0.06169000  0.12880000  1.0
  O  O16  1  0.10678000  0.02585000  0.07518000  1.0
  O  O17  1  0.93875000  0.37114000  0.62515000  1.0
  O  O18  1  0.97446000  0.42485000  0.60725000  1.0
  O  O19  1  0.43683000  0.62907000  0.87501000  1.0
  O  O20  1  0.47238000  0.57517000  0.89302000  1.0
  O  O21  1  0.56273000  0.87309000  0.37492000  1.0
  O  O22  1  0.52595000  0.92626000  0.39265000  1.0
  O  O23  1  0.06169000  0.12879000  0.12493000  1.0
  O  O24  1  0.02586000  0.07518000  0.10678000  1.0
  O  O25  1  0.37497000  0.62286000  0.81305000  1.0
  O  O26  1  0.35514000  0.67473000  0.77556000  1.0
  O  O27  1  0.62504000  0.87894000  0.31149000  1.0
  O  O28  1  0.64339000  0.82531000  0.27570000  1.0
  O  O29  1  0.12486000  0.12170000  0.18774000  1.0
  O  O30  1  0.14301000  0.17479000  0.22405000  1.0
  O  O31  1  0.87514000  0.37864000  0.68846000  1.0
  O  O32  1  0.85701000  0.32500000  0.72436000  1.0
  O  O33  1  0.68846000  0.87514000  0.37864000  1.0
  O  O34  1  0.72436000  0.85701000  0.32500000  1.0
  O  O35  1  0.18774000  0.12486000  0.12171000  1.0
  O  O36  1  0.22405000  0.14301000  0.17479000  1.0
  O  O37  1  0.31149000  0.62504000  0.87894000  1.0
  O  O38  1  0.27570000  0.64339000  0.82531000  1.0
  O  O39  1  0.81305000  0.37497000  0.62286000  1.0
  O  O40  1  0.77556000  0.35514000  0.67474000  1.0
  O  O41  1  0.12171000  0.18773000  0.12486000  1.0
  O  O42  1  0.17479000  0.22405000  0.14301000  1.0
  O  O43  1  0.37864000  0.68846000  0.87514000  1.0
  O  O44  1  0.32500000  0.72436000  0.85701000  1.0
  O  O45  1  0.62286000  0.81305000  0.37497000  1.0
  O  O46  1  0.67473000  0.77556000  0.35514000  1.0
  O  O47  1  0.87894000  0.31148000  0.62504000  1.0
  O  O48  1  0.82531000  0.27570000  0.64339000  1.0
