# generated using pymatgen
data_DyCuH8C16N5O8
_symmetry_space_group_name_H-M   'P 1'
_cell_length_a   10.73706000
_cell_length_b   10.85719000
_cell_length_c   12.07662000
_cell_angle_alpha   77.47942000
_cell_angle_beta   69.85594000
_cell_angle_gamma   60.54451000
_symmetry_Int_Tables_number   1
_chemical_formula_structural   DyCuH8C16N5O8
_chemical_formula_sum   'Dy2 Cu2 H16 C32 N10 O16'
_cell_volume   1148.92041005
_cell_formula_units_Z   2
loop_
 _symmetry_equiv_pos_site_id
 _symmetry_equiv_pos_as_xyz
  1  'x, y, z'
loop_
 _atom_site_type_symbol
 _atom_site_label
 _atom_site_symmetry_multiplicity
 _atom_site_fract_x
 _atom_site_fract_y
 _atom_site_fract_z
 _atom_site_occupancy
  Dy  Dy1  1  0.00832000  0.45914000  0.83724000  1.0
  Dy  Dy2  1  0.99114000  0.53969000  0.16342000  1.0
  Cu  Cu1  1  0.99873000  0.99821000  0.00113000  1.0
  Cu  Cu2  1  0.00017000  0.00019000  0.49946000  1.0
  H  H1  1  0.74196000  0.97761000  0.47564000  1.0
  H  H2  1  0.46209000  0.08684000  0.56742000  1.0
  H  H3  1  0.51088000  0.31898000  0.78204000  1.0
  H  H4  1  0.78727000  0.20900000  0.67772000  1.0
  H  H5  1  0.26641000  0.01516000  0.81501000  1.0
  H  H6  1  0.54623000  0.87031000  0.77049000  1.0
  H  H7  1  0.47667000  0.59096000  0.07035000  1.0
  H  H8  1  0.20118000  0.74673000  0.10572000  1.0
  H  H9  1  0.25898000  0.02195000  0.52436000  1.0
  H  H10  1  0.53859000  0.91324000  0.43241000  1.0
  H  H11  1  0.48980000  0.68089000  0.21770000  1.0
  H  H12  1  0.21380000  0.79048000  0.32217000  1.0
  H  H13  1  0.73032000  0.98548000  0.18576000  1.0
  H  H14  1  0.45133000  0.13066000  0.23042000  1.0
  H  H15  1  0.52200000  0.40972000  0.93019000  1.0
  H  H16  1  0.79722000  0.25307000  0.89484000  1.0
  C  C1  1  0.02376000  0.82138000  0.71726000  1.0
  C  C2  1  0.01228000  0.82555000  0.83569000  1.0
  C  C3  1  0.03614000  0.71968000  0.64243000  1.0
  C  C4  1  0.99744000  0.73576000  0.94470000  1.0
  C  C5  1  0.68565000  0.05467000  0.54302000  1.0
  C  C6  1  0.53218000  0.11366000  0.59450000  1.0
  C  C7  1  0.46798000  0.20932000  0.68263000  1.0
  C  C8  1  0.56002000  0.24450000  0.71385000  1.0
  C  C9  1  0.71150000  0.18392000  0.65710000  1.0
  C  C10  1  0.30366000  0.27850000  0.74320000  1.0
  C  C11  1  0.31782000  0.92175000  0.87017000  1.0
  C  C12  1  0.47152000  0.84200000  0.84573000  1.0
  C  C13  1  0.53126000  0.72089000  0.91819000  1.0
  C  C14  1  0.43366000  0.68563000  0.01384000  1.0
  C  C15  1  0.28145000  0.77104000  0.03364000  1.0
  C  C16  1  0.69666000  0.62803000  0.88912000  1.0
  C  C17  1  0.97788000  0.17819000  0.28135000  1.0
  C  C18  1  0.98878000  0.17429000  0.16301000  1.0
  C  C19  1  0.96486000  0.27995000  0.35645000  1.0
  C  C20  1  0.00366000  0.26475000  0.05495000  1.0
  C  C21  1  0.31517000  0.94500000  0.45689000  1.0
  C  C22  1  0.46859000  0.88627000  0.40535000  1.0
  C  C23  1  0.53286000  0.79042000  0.31730000  1.0
  C  C24  1  0.44087000  0.75534000  0.28593000  1.0
  C  C25  1  0.28945000  0.81574000  0.34273000  1.0
  C  C26  1  0.69725000  0.72085000  0.25736000  1.0
  C  C27  1  0.67927000  0.07896000  0.13057000  1.0
  C  C28  1  0.52570000  0.15940000  0.15513000  1.0
  C  C29  1  0.46656000  0.28069000  0.08259000  1.0
  C  C30  1  0.56473000  0.31521000  0.98694000  1.0
  C  C31  1  0.71683000  0.22904000  0.96705000  1.0
  C  C32  1  0.30137000  0.37428000  0.11165000  1.0
  N  N1  1  0.02486000  0.94467000  0.66347000  1.0
  N  N2  1  0.01664000  0.02245000  0.74036000  1.0
  N  N3  1  0.00878000  0.95051000  0.84473000  1.0
  N  N4  1  0.77335000  0.08972000  0.57365000  1.0
  N  N5  1  0.22455000  0.88658000  0.96309000  1.0
  N  N6  1  0.97571000  0.05542000  0.33553000  1.0
  N  N7  1  0.98265000  0.97815000  0.25912000  1.0
  N  N8  1  0.99056000  0.04989000  0.15459000  1.0
  N  N9  1  0.22749000  0.90984000  0.42631000  1.0
  N  N10  1  0.77325000  0.11319000  0.03754000  1.0
  O  O1  1  0.01314000  0.76843000  0.54335000  1.0
  O  O2  1  0.07526000  0.59008000  0.68300000  1.0
  O  O3  1  0.99347000  0.61910000  0.94483000  1.0
  O  O4  1  0.98645000  0.77474000  0.04108000  1.0
  O  O5  1  0.21258000  0.26577000  0.70679000  1.0
  O  O6  1  0.26083000  0.35193000  0.83100000  1.0
  O  O7  1  0.74883000  0.50981000  0.94816000  1.0
  O  O8  1  0.78118000  0.66723000  0.80340000  1.0
  O  O9  1  0.98774000  0.23169000  0.45586000  1.0
  O  O10  1  0.92466000  0.40946000  0.31631000  1.0
  O  O11  1  0.00756000  0.38146000  0.05557000  1.0
  O  O12  1  0.01464000  0.22783000  0.95738000  1.0
  O  O13  1  0.78806000  0.73441000  0.29319000  1.0
  O  O14  1  0.74008000  0.64562000  0.17057000  1.0
  O  O15  1  0.24915000  0.49343000  0.05372000  1.0
  O  O16  1  0.21683000  0.33422000  0.19632000  1.0
