# generated using pymatgen
data_NiH36C36(SN)6
_symmetry_space_group_name_H-M   'P 1'
_cell_length_a   14.40460000
_cell_length_b   14.41782000
_cell_length_c   14.68657000
_cell_angle_alpha   68.90709000
_cell_angle_beta   68.94651000
_cell_angle_gamma   67.73619000
_symmetry_Int_Tables_number   1
_chemical_formula_structural   NiH36C36(SN)6
_chemical_formula_sum   'Ni2 H72 C72 S12 N12'
_cell_volume   2544.36711081
_cell_formula_units_Z   2
loop_
 _symmetry_equiv_pos_site_id
 _symmetry_equiv_pos_as_xyz
  1  'x, y, z'
loop_
 _atom_site_type_symbol
 _atom_site_label
 _atom_site_symmetry_multiplicity
 _atom_site_fract_x
 _atom_site_fract_y
 _atom_site_fract_z
 _atom_site_occupancy
  Ni  Ni0  1  0.20604000  0.24773000  0.29407000  1
  Ni  Ni1  1  0.74768000  0.70615000  0.79385000  1
  H  H2  1  0.81055000  0.48443000  0.85942000  1
  H  H3  1  0.91384000  0.30103000  0.91889000  1
  H  H4  1  0.07266000  0.21965000  0.79358000  1
  H  H5  1  0.11710000  0.32680000  0.61631000  1
  H  H6  1  0.10700000  0.47804000  0.50630000  1
  H  H7  1  0.01117000  0.59496000  0.53445000  1
  H  H8  1  0.85258000  0.80855000  0.47677000  1
  H  H9  1  0.92272000  0.90509000  0.30034000  1
  H  H10  1  0.80290000  0.07126000  0.21747000  1
  H  H11  1  0.61975000  0.13005000  0.31617000  1
  H  H12  1  0.49564000  0.12147000  0.45626000  1
  H  H13  1  0.51992000  0.02846000  0.57239000  1
  H  H14  1  0.48162000  0.84545000  0.79095000  1
  H  H15  1  0.30826000  0.92665000  0.89363000  1
  H  H16  1  0.22867000  0.81686000  0.06268000  1
  H  H17  1  0.32698000  0.63057000  0.11695000  1
  H  H18  1  0.47280000  0.50589000  0.10874000  1
  H  H19  1  0.58769000  0.52355000  0.00902000  1
  H  H20  1  0.63545000  0.03020000  0.69677000  1
  H  H21  1  0.56576000  0.20579000  0.58989000  1
  H  H22  1  0.68744000  0.28200000  0.42895000  1
  H  H23  1  0.87123000  0.17384000  0.38227000  1
  H  H24  1  0.98609000  0.02015000  0.39392000  1
  H  H25  1  0.96263000  0.90998000  0.49791000  1
  H  H26  1  0.00275000  0.70345000  0.67209000  1
  H  H27  1  0.17934000  0.60609000  0.58740000  1
  H  H28  1  0.27228000  0.43276000  0.68997000  1
  H  H29  1  0.18654000  0.37208000  0.87131000  1
  H  H30  1  0.05188000  0.37776000  0.00173000  1
  H  H31  1  0.92709000  0.46633000  0.98788000  1
  H  H32  1  0.68672000  0.63507000  0.01775000  1
  H  H33  1  0.59310000  0.57980000  0.19957000  1
  H  H34  1  0.43712000  0.71214000  0.27759000  1
  H  H35  1  0.38393000  0.89179000  0.16868000  1
  H  H36  1  0.39079000  0.00442000  0.02141000  1
  H  H37  1  0.48321000  0.97375000  0.90732000  1
  H  H38  1  0.20479000  0.50245000  0.17129000  1
  H  H39  1  0.10718000  0.67860000  0.08584000  1
  H  H40  1  0.93393000  0.77173000  0.18799000  1
  H  H41  1  0.87302000  0.68666000  0.36980000  1
  H  H42  1  0.87865000  0.55257000  0.50033000  1
  H  H43  1  0.96678000  0.42756000  0.48677000  1
  H  H44  1  0.13423000  0.18849000  0.51763000  1
  H  H45  1  0.07907000  0.09339000  0.69883000  1
  H  H46  1  0.21132000  0.93673000  0.77631000  1
  H  H47  1  0.39122000  0.88444000  0.66735000  1
  H  H48  1  0.50335000  0.89178000  0.51879000  1
  H  H49  1  0.47189000  0.98639000  0.40592000  1
  H  H50  1  0.53157000  0.13618000  0.19650000  1
  H  H51  1  0.70665000  0.06662000  0.08895000  1
  H  H52  1  0.78234000  0.18873000  0.92795000  1
  H  H53  1  0.67381000  0.37266000  0.88162000  1
  H  H54  1  0.51971000  0.48705000  0.89407000  1
  H  H55  1  0.41005000  0.46298000  0.99833000  1
  H  H56  1  0.34473000  0.98329000  0.29147000  1
  H  H57  1  0.42626000  0.80917000  0.39325000  1
  H  H58  1  0.31615000  0.72851000  0.56147000  1
  H  H59  1  0.12992000  0.82628000  0.61608000  1
  H  H60  1  0.00489000  0.97319000  0.60863000  1
  H  H61  1  0.02235000  0.08797000  0.50871000  1
  H  H62  1  0.98458000  0.31024000  0.36014000  1
  H  H63  1  0.80120000  0.41384000  0.41948000  1
  H  H64  1  0.72004000  0.57279000  0.29387000  1
  H  H65  1  0.82692000  0.61665000  0.11650000  1
  H  H66  1  0.97874000  0.60602000  0.00654000  1
  H  H67  1  0.09535000  0.50965000  0.03527000  1
  H  H68  1  0.30843000  0.35267000  0.97871000  1
  H  H69  1  0.40320000  0.42303000  0.80145000  1
  H  H70  1  0.56966000  0.30388000  0.71822000  1
  H  H71  1  0.62961000  0.12113000  0.81645000  1
  H  H72  1  0.62117000  0.99560000  0.95519000  1
  H  H73  1  0.53029000  0.01918000  0.07242000  1
  C  C74  1  0.90561000  0.50691000  0.70820000  1
  C  C75  1  0.87880000  0.44639000  0.80855000  1
  C  C76  1  0.93651000  0.34494000  0.84093000  1
  C  C77  1  0.02490000  0.29891000  0.77180000  1
  C  C78  1  0.05130000  0.35670000  0.67419000  1
  C  C79  1  0.02471000  0.51398000  0.53716000  1
  C  C80  1  0.69860000  0.91112000  0.49313000  1
  C  C81  1  0.80380000  0.87901000  0.43772000  1
  C  C82  1  0.84215000  0.93354000  0.34054000  1
  C  C83  1  0.77615000  0.02607000  0.29362000  1
  C  C84  1  0.67506000  0.05966000  0.34664000  1
  C  C85  1  0.52716000  0.03956000  0.49248000  1
  C  C86  1  0.49923000  0.69457000  0.89442000  1
  C  C87  1  0.44427000  0.80092000  0.86302000  1
  C  C88  1  0.34876000  0.84531000  0.92068000  1
  C  C89  1  0.30335000  0.78471000  0.01476000  1
  C  C90  1  0.35642000  0.68240000  0.04622000  1
  C  C91  1  0.50507000  0.52978000  0.02703000  1
  C  C92  1  0.79159000  0.00692000  0.60374000  1
  C  C93  1  0.68493000  0.06601000  0.62784000  1
  C  C94  1  0.64709000  0.16253000  0.56780000  1
  C  C95  1  0.71388000  0.20553000  0.47751000  1
  C  C96  1  0.81504000  0.14733000  0.45056000  1
  C  C97  1  0.96015000  0.99195000  0.47602000  1
  C  C98  1  0.99620000  0.59294000  0.81558000  1
  C  C99  1  0.04606000  0.62988000  0.71296000  1
  C  C100  1  0.14350000  0.57535000  0.66650000  1
  C  C101  1  0.19643000  0.47946000  0.72317000  1
  C  C102  1  0.14991000  0.44404000  0.82314000  1
  C  C103  1  0.00882000  0.45916000  0.97661000  1
  C  C104  1  0.59031000  0.79136000  0.99403000  1
  C  C105  1  0.61989000  0.68906000  0.05432000  1
  C  C106  1  0.56718000  0.65894000  0.15508000  1
  C  C107  1  0.48043000  0.73200000  0.19913000  1
  C  C108  1  0.44991000  0.83120000  0.14084000  1
  C  C109  1  0.47221000  0.96940000  0.98643000  1
  C  C110  1  0.09411000  0.49623000  0.31462000  1
  C  C111  1  0.13098000  0.54575000  0.21185000  1
  C  C112  1  0.07634000  0.64297000  0.16502000  1
  C  C113  1  0.98039000  0.69596000  0.22162000  1
  C  C114  1  0.94495000  0.64981000  0.32175000  1
  C  C115  1  0.96002000  0.50913000  0.47557000  1
  C  C116  1  0.29057000  0.09190000  0.49351000  1
  C  C117  1  0.18829000  0.12118000  0.55385000  1
  C  C118  1  0.15819000  0.06771000  0.65428000  1
  C  C119  1  0.23129000  0.98058000  0.69807000  1
  C  C120  1  0.33053000  0.95046000  0.63972000  1
  C  C121  1  0.46841000  0.97359000  0.48516000  1
  C  C122  1  0.50813000  0.29242000  0.10388000  1
  C  C123  1  0.56720000  0.18573000  0.12757000  1
  C  C124  1  0.66344000  0.14805000  0.06711000  1
  C  C125  1  0.70611000  0.21510000  0.97682000  1
  C  C126  1  0.64769000  0.31619000  0.94993000  1
  C  C127  1  0.49202000  0.46088000  0.97619000  1
  C  C128  1  0.19393000  0.99998000  0.39474000  1
  C  C129  1  0.30038000  0.94535000  0.36322000  1
  C  C130  1  0.34486000  0.84946000  0.42034000  1
  C  C131  1  0.28409000  0.80348000  0.51392000  1
  C  C132  1  0.18169000  0.85633000  0.54560000  1
  C  C133  1  0.02892000  0.00531000  0.52689000  1
  C  C134  1  0.00693000  0.40497000  0.20879000  1
  C  C135  1  0.94649000  0.37837000  0.30922000  1
  C  C136  1  0.84511000  0.43640000  0.34149000  1
  C  C137  1  0.79913000  0.52470000  0.27218000  1
  C  C138  1  0.85687000  0.55092000  0.17452000  1
  C  C139  1  0.01425000  0.52375000  0.03780000  1
  C  C140  1  0.41158000  0.19898000  0.99463000  1
  C  C141  1  0.37872000  0.30407000  0.93929000  1
  C  C142  1  0.43234000  0.34263000  0.84171000  1
  C  C143  1  0.52486000  0.27695000  0.79452000  1
  C  C144  1  0.55910000  0.17594000  0.84737000  1
  C  C145  1  0.53968000  0.02733000  0.99265000  1
  S  S146  1  0.83698000  0.63214000  0.66299000  1
  S  S147  1  0.64870000  0.84330000  0.60985000  1
  S  S148  1  0.61659000  0.63630000  0.82475000  1
  S  S149  1  0.84292000  0.89394000  0.68020000  1
  S  S150  1  0.87435000  0.65755000  0.87411000  1
  S  S151  1  0.65444000  0.83682000  0.87152000  1
  S  S152  1  0.15880000  0.37458000  0.37347000  1
  S  S153  1  0.33645000  0.15636000  0.37134000  1
  S  S154  1  0.39563000  0.34358000  0.18091000  1
  S  S155  1  0.13564000  0.11718000  0.32499000  1
  S  S156  1  0.13210000  0.33628000  0.16354000  1
  S  S157  1  0.34488000  0.14886000  0.11190000  1
  N  N158  1  0.99472000  0.45802000  0.64275000  1
  N  N159  1  0.63706000  0.00523000  0.44310000  1
  N  N160  1  0.45150000  0.63854000  0.98911000  1
  N  N161  1  0.85206000  0.05058000  0.50947000  1
  N  N162  1  0.05280000  0.49782000  0.86908000  1
  N  N163  1  0.50222000  0.86066000  0.04084000  1
  N  N164  1  0.99900000  0.55293000  0.36803000  1
  N  N165  1  0.35985000  0.00348000  0.53999000  1
  N  N166  1  0.55131000  0.35304000  0.00949000  1
  N  N167  1  0.13785000  0.95186000  0.48914000  1
  N  N168  1  0.95818000  0.49424000  0.14332000  1
  N  N169  1  0.50528000  0.13748000  0.94400000  1
