# generated using pymatgen
data_Ni2H40C53(N2O7)2
_symmetry_space_group_name_H-M   'P 1'
_cell_length_a   10.44663000
_cell_length_b   23.20933000
_cell_length_c   23.89015000
_cell_angle_alpha   85.19231000
_cell_angle_beta   89.88876000
_cell_angle_gamma   77.02304000
_symmetry_Int_Tables_number   1
_chemical_formula_structural   Ni2H40C53(N2O7)2
_chemical_formula_sum   'Ni8 H160 C212 N16 O56'
_cell_volume   5623.74444849
_cell_formula_units_Z   4
loop_
 _symmetry_equiv_pos_site_id
 _symmetry_equiv_pos_as_xyz
  1  'x, y, z'
loop_
 _atom_site_type_symbol
 _atom_site_label
 _atom_site_symmetry_multiplicity
 _atom_site_fract_x
 _atom_site_fract_y
 _atom_site_fract_z
 _atom_site_occupancy
  Ni  Ni0  1  0.05827000  0.56960000  0.07596000  1
  Ni  Ni1  1  0.83981000  0.01923000  0.93237000  1
  Ni  Ni2  1  0.62840000  0.43047000  0.42232000  1
  Ni  Ni3  1  0.85463000  0.98096000  0.56743000  1
  Ni  Ni4  1  0.94165000  0.43039000  0.92407000  1
  Ni  Ni5  1  0.16018000  0.98077000  0.06762000  1
  Ni  Ni6  1  0.37160000  0.56953000  0.57768000  1
  Ni  Ni7  1  0.14537000  0.01904000  0.43257000  1
  H  H8  1  0.23713000  0.70258000  0.12684000  1
  H  H9  1  0.39506000  0.76086000  0.15878000  1
  H  H10  1  0.68034000  0.67745000  0.04424000  1
  H  H11  1  0.51782000  0.62258000  0.00880000  1
  H  H12  1  0.51228000  0.80838000  0.03203000  1
  H  H13  1  0.58648000  0.88986000  0.97567000  1
  H  H14  1  0.93292000  0.86092000  0.07962000  1
  H  H15  1  0.85708000  0.77901000  0.13789000  1
  H  H16  1  0.14578000  0.41342000  0.20840000  1
  H  H17  1  0.08932000  0.32547000  0.26458000  1
  H  H18  1  0.79571000  0.32108000  0.13999000  1
  H  H19  1  0.84773000  0.40919000  0.08567000  1
  H  H20  1  0.03261000  0.23943000  0.14219000  1
  H  H21  1  0.06565000  0.13806000  0.10881000  1
  H  H22  1  0.85482000  0.08172000  0.24914000  1
  H  H23  1  0.82311000  0.18325000  0.28440000  1
  H  H24  1  0.11212000  0.63922000  0.16609000  1
  H  H25  1  0.99037000  0.69788000  0.23927000  1
  H  H26  1  0.65657000  0.62488000  0.20080000  1
  H  H27  1  0.79508000  0.56955000  0.12804000  1
  H  H28  1  0.57651000  0.56210000  0.49270000  1
  H  H29  1  0.65449000  0.62892000  0.42138000  1
  H  H30  1  0.34647000  0.77248000  0.47307000  1
  H  H31  1  0.27712000  0.69706000  0.54086000  1
  H  H32  1  0.14419000  0.91040000  0.17993000  1
  H  H33  1  0.29983000  0.85312000  0.25341000  1
  H  H34  1  0.61599000  0.89562000  0.15195000  1
  H  H35  1  0.44551000  0.94839000  0.08056000  1
  H  H36  1  0.94622000  0.84748000  0.55996000  1
  H  H37  1  0.92487000  0.77505000  0.49130000  1
  H  H38  1  0.76360000  0.92583000  0.37290000  1
  H  H39  1  0.79786000  0.99032000  0.44445000  1
  H  H40  1  0.74254000  0.85557000  0.31748000  1
  H  H41  1  0.62332000  0.85356000  0.37095000  1
  H  H42  1  0.50048000  0.76553000  0.27367000  1
  H  H43  1  0.46369000  0.82597000  0.31723000  1
  H  H44  1  0.62497000  0.68980000  0.34622000  1
  H  H45  1  0.73604000  0.71048000  0.39381000  1
  H  H46  1  0.79558000  0.77834000  0.25292000  1
  H  H47  1  0.86650000  0.72742000  0.31100000  1
  H  H48  1  0.94272000  0.29820000  0.37089000  1
  H  H49  1  0.15974000  0.23940000  0.33998000  1
  H  H50  1  0.35876000  0.32348000  0.45475000  1
  H  H51  1  0.14021000  0.37880000  0.48915000  1
  H  H52  1  0.32058000  0.19254000  0.46745000  1
  H  H53  1  0.47441000  0.11080000  0.52407000  1
  H  H54  1  0.79434000  0.13855000  0.42034000  1
  H  H55  1  0.63846000  0.22067000  0.36175000  1
  H  H56  1  0.55610000  0.58804000  0.28927000  1
  H  H57  1  0.40902000  0.67589000  0.23429000  1
  H  H58  1  0.11452000  0.67699000  0.36063000  1
  H  H59  1  0.25754000  0.58928000  0.41381000  1
  H  H60  1  0.26923000  0.75950000  0.35757000  1
  H  H61  1  0.20553000  0.86110000  0.39074000  1
  H  H62  1  0.93507000  0.91862000  0.25208000  1
  H  H63  1  0.00063000  0.81692000  0.21695000  1
  H  H64  1  0.75270000  0.36148000  0.33178000  1
  H  H65  1  0.68983000  0.30211000  0.25927000  1
  H  H66  1  0.28318000  0.37455000  0.29833000  1
  H  H67  1  0.36595000  0.43045000  0.37069000  1
  H  H68  1  0.14247000  0.43677000  0.00780000  1
  H  H69  1  0.28367000  0.37004000  0.07999000  1
  H  H70  1  0.11426000  0.22735000  0.02983000  1
  H  H71  1  0.97330000  0.30269000  0.96105000  1
  H  H72  1  0.05908000  0.08965000  0.32111000  1
  H  H73  1  0.15966000  0.14565000  0.24716000  1
  H  H74  1  0.51763000  0.10243000  0.34869000  1
  H  H75  1  0.39702000  0.05115000  0.42054000  1
  H  H76  1  0.79330000  0.15285000  0.93776000  1
  H  H77  1  0.69688000  0.22568000  0.00569000  1
  H  H78  1  0.69059000  0.07545000  0.12567000  1
  H  H79  1  0.79206000  0.01064000  0.05488000  1
  H  H80  1  0.60253000  0.14478000  0.18033000  1
  H  H81  1  0.47788000  0.14599000  0.12871000  1
  H  H82  1  0.27205000  0.23196000  0.22893000  1
  H  H83  1  0.29300000  0.17268000  0.18415000  1
  H  H84  1  0.31541000  0.30943000  0.15562000  1
  H  H85  1  0.44303000  0.28895000  0.10590000  1
  H  H86  1  0.57780000  0.22171000  0.24603000  1
  H  H87  1  0.59432000  0.27301000  0.18754000  1
  H  H88  1  0.76287000  0.29741000  0.87316000  1
  H  H89  1  0.60493000  0.23914000  0.84121000  1
  H  H90  1  0.31965000  0.32256000  0.95575000  1
  H  H91  1  0.48217000  0.37742000  0.99120000  1
  H  H92  1  0.48772000  0.19162000  0.96797000  1
  H  H93  1  0.41351000  0.11014000  0.02433000  1
  H  H94  1  0.06707000  0.13909000  0.92037000  1
  H  H95  1  0.14292000  0.22099000  0.86210000  1
  H  H96  1  0.85421000  0.58656000  0.79162000  1
  H  H97  1  0.91067000  0.67450000  0.73543000  1
  H  H98  1  0.20428000  0.67890000  0.86002000  1
  H  H99  1  0.15225000  0.59082000  0.91436000  1
  H  H100  1  0.96739000  0.76056000  0.85782000  1
  H  H101  1  0.93433000  0.86194000  0.89119000  1
  H  H102  1  0.14516000  0.91828000  0.75086000  1
  H  H103  1  0.17690000  0.81674000  0.71560000  1
  H  H104  1  0.88787000  0.36079000  0.83391000  1
  H  H105  1  0.00962000  0.30213000  0.76073000  1
  H  H106  1  0.34342000  0.37513000  0.79919000  1
  H  H107  1  0.20492000  0.43046000  0.87196000  1
  H  H108  1  0.42349000  0.43790000  0.50730000  1
  H  H109  1  0.34550000  0.37109000  0.57861000  1
  H  H110  1  0.65352000  0.22752000  0.52693000  1
  H  H111  1  0.72287000  0.30294000  0.45914000  1
  H  H112  1  0.85581000  0.08960000  0.82006000  1
  H  H113  1  0.70017000  0.14688000  0.74659000  1
  H  H114  1  0.38401000  0.10438000  0.84805000  1
  H  H115  1  0.55450000  0.05161000  0.91943000  1
  H  H116  1  0.05377000  0.15253000  0.44004000  1
  H  H117  1  0.07511000  0.22496000  0.50870000  1
  H  H118  1  0.23638000  0.07417000  0.62710000  1
  H  H119  1  0.20214000  0.00969000  0.55554000  1
  H  H120  1  0.25744000  0.14444000  0.68251000  1
  H  H121  1  0.37667000  0.14645000  0.62905000  1
  H  H122  1  0.49952000  0.23447000  0.72632000  1
  H  H123  1  0.53629000  0.17404000  0.68276000  1
  H  H124  1  0.37502000  0.31021000  0.65378000  1
  H  H125  1  0.26395000  0.28953000  0.60618000  1
  H  H126  1  0.20441000  0.22167000  0.74708000  1
  H  H127  1  0.13349000  0.27259000  0.68900000  1
  H  H128  1  0.05727000  0.70180000  0.62911000  1
  H  H129  1  0.84025000  0.76060000  0.66001000  1
  H  H130  1  0.64123000  0.67652000  0.54524000  1
  H  H131  1  0.85979000  0.62121000  0.51085000  1
  H  H132  1  0.67942000  0.80746000  0.53255000  1
  H  H133  1  0.52558000  0.88920000  0.47593000  1
  H  H134  1  0.20566000  0.86146000  0.57965000  1
  H  H135  1  0.36153000  0.77933000  0.63825000  1
  H  H136  1  0.44390000  0.41196000  0.71072000  1
  H  H137  1  0.59098000  0.32411000  0.76571000  1
  H  H138  1  0.88547000  0.32301000  0.63936000  1
  H  H139  1  0.74245000  0.41073000  0.58619000  1
  H  H140  1  0.73076000  0.24050000  0.64243000  1
  H  H141  1  0.79446000  0.13890000  0.60926000  1
  H  H142  1  0.06493000  0.08138000  0.74792000  1
  H  H143  1  0.99936000  0.18309000  0.78305000  1
  H  H144  1  0.24729000  0.63852000  0.66822000  1
  H  H145  1  0.31016000  0.69789000  0.74073000  1
  H  H146  1  0.71681000  0.62545000  0.70167000  1
  H  H147  1  0.63404000  0.56955000  0.62930000  1
  H  H148  1  0.85750000  0.56323000  0.99221000  1
  H  H149  1  0.71629000  0.62996000  0.92002000  1
  H  H150  1  0.88572000  0.77265000  0.97018000  1
  H  H151  1  0.02670000  0.69731000  0.03895000  1
  H  H152  1  0.94091000  0.91035000  0.67888000  1
  H  H153  1  0.84034000  0.85436000  0.75284000  1
  H  H154  1  0.48236000  0.89757000  0.65131000  1
  H  H155  1  0.60298000  0.94885000  0.57945000  1
  H  H156  1  0.20671000  0.84715000  0.06223000  1
  H  H157  1  0.30310000  0.77432000  0.99431000  1
  H  H158  1  0.30940000  0.92455000  0.87432000  1
  H  H159  1  0.20794000  0.98937000  0.94512000  1
  H  H160  1  0.39746000  0.85522000  0.81966000  1
  H  H161  1  0.52211000  0.85401000  0.87128000  1
  H  H162  1  0.72795000  0.76804000  0.77107000  1
  H  H163  1  0.70699000  0.82732000  0.81584000  1
  H  H164  1  0.68459000  0.69058000  0.84438000  1
  H  H165  1  0.55695000  0.71104000  0.89409000  1
  H  H166  1  0.42219000  0.77830000  0.75396000  1
  H  H167  1  0.40567000  0.72700000  0.81246000  1
  C  C168  1  0.27429000  0.62336000  0.04708000  1
  C  C169  1  0.36769000  0.65936000  0.06550000  1
  C  C170  1  0.33346000  0.69786000  0.10816000  1
  C  C171  1  0.42140000  0.72971000  0.12680000  1
  C  C172  1  0.54584000  0.72101000  0.10347000  1
  C  C173  1  0.58222000  0.68296000  0.06108000  1
  C  C174  1  0.49229000  0.65278000  0.04164000  1
  C  C175  1  0.68031000  0.79007000  0.08854000  1
  C  C176  1  0.60458000  0.81953000  0.04210000  1
  C  C177  1  0.64619000  0.86487000  0.01068000  1
  C  C178  1  0.76399000  0.88023000  0.02435000  1
  C  C179  1  0.84137000  0.84871000  0.06982000  1
  C  C180  1  0.79986000  0.80371000  0.10209000  1
  C  C181  1  0.80248000  0.93116000  0.99243000  1
  C  C182  1  0.00018000  0.41660000  0.14420000  1
  C  C183  1  0.06906000  0.39284000  0.19429000  1
  C  C184  1  0.03887000  0.34407000  0.22517000  1
  C  C185  1  0.94035000  0.31887000  0.20523000  1
  C  C186  1  0.87094000  0.34183000  0.15527000  1
  C  C187  1  0.90061000  0.39104000  0.12484000  1
  C  C188  1  0.92436000  0.21721000  0.21499000  1
  C  C189  1  0.99247000  0.20539000  0.16527000  1
  C  C190  1  0.01024000  0.14898000  0.14655000  1
  C  C191  1  0.96016000  0.10423000  0.17608000  1
  C  C192  1  0.89038000  0.11704000  0.22539000  1
  C  C193  1  0.87292000  0.17335000  0.24511000  1
  C  C194  1  0.98713000  0.04335000  0.15441000  1
  C  C195  1  0.01081000  0.63792000  0.17518000  1
  C  C196  1  0.94126000  0.67068000  0.21594000  1
  C  C197  1  0.81074000  0.66727000  0.22484000  1
  C  C198  1  0.75736000  0.62883000  0.19442000  1
  C  C199  1  0.83311000  0.59857000  0.15391000  1
  C  C200  1  0.52720000  0.60879000  0.48624000  1
  C  C201  1  0.57075000  0.64696000  0.44651000  1
  C  C202  1  0.50453000  0.70690000  0.44074000  1
  C  C203  1  0.39737000  0.72599000  0.47534000  1
  C  C204  1  0.35976000  0.68470000  0.51322000  1
  C  C205  1  0.24972000  0.90437000  0.17442000  1
  C  C206  1  0.33768000  0.87283000  0.21589000  1
  C  C207  1  0.47212000  0.86912000  0.20792000  1
  C  C208  1  0.51236000  0.89761000  0.15903000  1
  C  C209  1  0.41823000  0.92658000  0.11940000  1
  C  C210  1  0.90633000  0.86305000  0.51798000  1
  C  C211  1  0.89397000  0.82256000  0.47984000  1
  C  C212  1  0.83423000  0.84416000  0.42728000  1
  C  C213  1  0.80041000  0.90563000  0.41408000  1
  C  C214  1  0.81989000  0.94263000  0.45450000  1
  C  C215  1  0.70806000  0.82698000  0.35042000  1
  C  C216  1  0.53831000  0.80130000  0.29036000  1
  C  C217  1  0.64622000  0.72652000  0.36795000  1
  C  C218  1  0.77604000  0.74593000  0.28610000  1
  C  C219  1  0.03209000  0.46957000  0.11287000  1
  C  C220  1  0.66657000  0.77554000  0.32423000  1
  C  C221  1  0.89910000  0.37809000  0.45017000  1
  C  C222  1  0.02863000  0.34173000  0.43223000  1
  C  C223  1  0.03390000  0.30287000  0.38985000  1
  C  C224  1  0.15413000  0.27074000  0.37183000  1
  C  C225  1  0.26920000  0.27951000  0.39554000  1
  C  C226  1  0.26658000  0.31788000  0.43770000  1
  C  C227  1  0.14601000  0.34833000  0.45651000  1
  C  C228  1  0.47180000  0.21013000  0.41105000  1
  C  C229  1  0.42411000  0.18104000  0.45748000  1
  C  C230  1  0.50998000  0.13565000  0.48906000  1
  C  C231  1  0.64321000  0.12001000  0.47549000  1
  C  C232  1  0.69050000  0.15114000  0.43002000  1
  C  C233  1  0.60510000  0.19617000  0.39757000  1
  C  C234  1  0.73137000  0.06908000  0.50751000  1
  C  C235  1  0.41619000  0.58345000  0.35438000  1
  C  C236  1  0.45895000  0.60801000  0.30401000  1
  C  C237  1  0.37821000  0.65660000  0.27370000  1
  C  C238  1  0.25455000  0.68070000  0.29446000  1
  C  C239  1  0.21027000  0.65691000  0.34465000  1
  C  C240  1  0.29103000  0.60797000  0.37454000  1
  C  C241  1  0.13712000  0.78235000  0.28553000  1
  C  C242  1  0.19542000  0.79387000  0.33478000  1
  C  C243  1  0.15938000  0.85046000  0.35339000  1
  C  C244  1  0.06515000  0.89570000  0.32427000  1
  C  C245  1  0.00581000  0.88308000  0.27553000  1
  C  C246  1  0.04215000  0.82663000  0.25590000  1
  C  C247  1  0.03407000  0.95683000  0.34577000  1
  C  C248  1  0.65016000  0.36247000  0.32303000  1
  C  C249  1  0.61355000  0.32939000  0.28260000  1
  C  C250  1  0.47972000  0.33244000  0.27426000  1
  C  C251  1  0.38776000  0.37096000  0.30454000  1
  C  C252  1  0.43305000  0.40147000  0.34478000  1
  C  C253  1  0.13800000  0.39031000  0.01469000  1
  C  C254  1  0.21794000  0.35216000  0.05483000  1
  C  C255  1  0.20901000  0.29255000  0.06132000  1
  C  C256  1  0.12058000  0.27365000  0.02692000  1
  C  C257  1  0.04367000  0.31494000  0.98856000  1
  C  C258  1  0.15895000  0.09534000  0.32643000  1
  C  C259  1  0.21687000  0.12604000  0.28470000  1
  C  C260  1  0.34816000  0.12897000  0.29251000  1
  C  C261  1  0.41579000  0.10083000  0.34158000  1
  C  C262  1  0.34913000  0.07279000  0.38149000  1
  C  C263  1  0.76946000  0.13752000  0.97995000  1
  C  C264  1  0.71500000  0.17822000  0.01767000  1
  C  C265  1  0.67739000  0.15676000  0.07048000  1
  C  C266  1  0.70702000  0.09540000  0.08433000  1
  C  C267  1  0.76503000  0.05822000  0.04432000  1
  C  C268  1  0.53639000  0.17304000  0.14830000  1
  C  C269  1  0.34465000  0.19689000  0.21071000  1
  C  C270  1  0.37127000  0.27283000  0.13309000  1
  C  C271  1  0.52411000  0.25381000  0.21311000  1
  C  C272  1  0.50349000  0.53067000  0.38496000  1
  C  C273  1  0.44400000  0.22371000  0.17576000  1
  C  C274  1  0.72570000  0.37663000  0.95292000  1
  C  C275  1  0.63230000  0.34064000  0.93450000  1
  C  C276  1  0.66653000  0.30214000  0.89184000  1
  C  C277  1  0.57859000  0.27029000  0.87320000  1
  C  C278  1  0.45415000  0.27899000  0.89652000  1
  C  C279  1  0.41777000  0.31704000  0.93891000  1
  C  C280  1  0.50770000  0.34722000  0.95836000  1
  C  C281  1  0.31969000  0.20993000  0.91145000  1
  C  C282  1  0.39542000  0.18048000  0.95790000  1
  C  C283  1  0.35381000  0.13514000  0.98931000  1
  C  C284  1  0.23601000  0.11977000  0.97564000  1
  C  C285  1  0.15863000  0.15129000  0.93018000  1
  C  C286  1  0.20013000  0.19629000  0.89790000  1
  C  C287  1  0.19753000  0.06884000  0.00756000  1
  C  C288  1  0.99979000  0.58339000  0.85585000  1
  C  C289  1  0.93094000  0.60713000  0.80574000  1
  C  C290  1  0.96113000  0.65590000  0.77484000  1
  C  C291  1  0.05964000  0.68112000  0.79478000  1
  C  C292  1  0.12905000  0.65815000  0.84474000  1
  C  C293  1  0.09937000  0.60895000  0.87519000  1
  C  C294  1  0.07563000  0.78279000  0.78501000  1
  C  C295  1  0.00752000  0.79460000  0.83473000  1
  C  C296  1  0.98974000  0.85102000  0.85344000  1
  C  C297  1  0.03982000  0.89577000  0.82391000  1
  C  C298  1  0.10961000  0.88295000  0.77461000  1
  C  C299  1  0.12708000  0.82664000  0.75489000  1
  C  C300  1  0.01285000  0.95665000  0.84558000  1
  C  C301  1  0.98918000  0.36209000  0.82482000  1
  C  C302  1  0.05873000  0.32933000  0.78406000  1
  C  C303  1  0.18925000  0.33273000  0.77516000  1
  C  C304  1  0.24262000  0.37118000  0.80557000  1
  C  C305  1  0.16687000  0.40144000  0.84609000  1
  C  C306  1  0.47279000  0.39121000  0.51376000  1
  C  C307  1  0.42924000  0.35304000  0.55349000  1
  C  C308  1  0.49546000  0.29310000  0.55925000  1
  C  C309  1  0.60262000  0.27401000  0.52465000  1
  C  C310  1  0.64023000  0.31530000  0.48677000  1
  C  C311  1  0.75028000  0.09563000  0.82557000  1
  C  C312  1  0.66231000  0.12717000  0.78410000  1
  C  C313  1  0.52788000  0.13088000  0.79208000  1
  C  C314  1  0.48764000  0.10239000  0.84097000  1
  C  C315  1  0.58177000  0.07342000  0.88059000  1
  C  C316  1  0.09366000  0.13695000  0.48202000  1
  C  C317  1  0.10602000  0.17745000  0.52016000  1
  C  C318  1  0.16575000  0.15584000  0.57271000  1
  C  C319  1  0.19958000  0.09437000  0.58592000  1
  C  C320  1  0.18010000  0.05737000  0.54549000  1
  C  C321  1  0.29192000  0.17302000  0.64958000  1
  C  C322  1  0.46169000  0.19870000  0.70963000  1
  C  C323  1  0.35377000  0.27348000  0.63205000  1
  C  C324  1  0.22395000  0.25408000  0.71390000  1
  C  C325  1  0.96770000  0.53046000  0.88723000  1
  C  C326  1  0.33342000  0.22447000  0.67577000  1
  C  C327  1  0.10089000  0.62191000  0.54982000  1
  C  C328  1  0.97136000  0.65827000  0.56777000  1
  C  C329  1  0.96609000  0.69713000  0.61014000  1
  C  C330  1  0.84587000  0.72926000  0.62817000  1
  C  C331  1  0.73079000  0.72049000  0.60445000  1
  C  C332  1  0.73342000  0.68212000  0.56230000  1
  C  C333  1  0.85399000  0.65168000  0.54349000  1
  C  C334  1  0.52819000  0.78988000  0.58894000  1
  C  C335  1  0.57588000  0.81896000  0.54252000  1
  C  C336  1  0.49002000  0.86435000  0.51094000  1
  C  C337  1  0.35678000  0.87999000  0.52451000  1
  C  C338  1  0.30950000  0.84886000  0.56997000  1
  C  C339  1  0.39490000  0.80383000  0.60243000  1
  C  C340  1  0.26862000  0.93092000  0.49249000  1
  C  C341  1  0.58381000  0.41655000  0.64562000  1
  C  C342  1  0.54104000  0.39200000  0.69598000  1
  C  C343  1  0.62178000  0.34340000  0.72630000  1
  C  C344  1  0.74544000  0.31930000  0.70554000  1
  C  C345  1  0.78973000  0.34309000  0.65535000  1
  C  C346  1  0.70896000  0.39203000  0.62546000  1
  C  C347  1  0.86288000  0.21765000  0.71446000  1
  C  C348  1  0.80457000  0.20613000  0.66521000  1
  C  C349  1  0.84061000  0.14955000  0.64661000  1
  C  C350  1  0.93484000  0.10431000  0.67573000  1
  C  C351  1  0.99418000  0.11692000  0.72446000  1
  C  C352  1  0.95784000  0.17338000  0.74410000  1
  C  C353  1  0.96592000  0.04317000  0.65422000  1
  C  C354  1  0.34983000  0.63753000  0.67696000  1
  C  C355  1  0.38644000  0.67061000  0.71740000  1
  C  C356  1  0.52027000  0.66757000  0.72574000  1
  C  C357  1  0.61223000  0.62904000  0.69546000  1
  C  C358  1  0.56694000  0.59854000  0.65522000  1
  C  C359  1  0.86196000  0.60969000  0.98532000  1
  C  C360  1  0.78203000  0.64784000  0.94518000  1
  C  C361  1  0.79097000  0.70745000  0.93868000  1
  C  C362  1  0.87940000  0.72634000  0.97309000  1
  C  C363  1  0.95632000  0.68506000  0.01144000  1
  C  C364  1  0.84105000  0.90466000  0.67357000  1
  C  C365  1  0.78312000  0.87396000  0.71529000  1
  C  C366  1  0.65184000  0.87103000  0.70748000  1
  C  C367  1  0.58420000  0.89917000  0.65841000  1
  C  C368  1  0.65086000  0.92721000  0.61851000  1
  C  C369  1  0.23054000  0.86249000  0.02005000  1
  C  C370  1  0.28499000  0.82178000  0.98232000  1
  C  C371  1  0.32260000  0.84324000  0.92951000  1
  C  C372  1  0.29298000  0.90460000  0.91567000  1
  C  C373  1  0.23497000  0.94179000  0.95567000  1
  C  C374  1  0.46360000  0.82697000  0.85170000  1
  C  C375  1  0.65535000  0.80311000  0.78929000  1
  C  C376  1  0.62872000  0.72717000  0.86690000  1
  C  C377  1  0.47588000  0.74619000  0.78688000  1
  C  C378  1  0.49651000  0.46933000  0.61503000  1
  C  C379  1  0.55599000  0.77629000  0.82423000  1
  N  N380  1  0.95759000  0.60371000  0.14341000  1
  N  N381  1  0.28824000  0.92983000  0.12642000  1
  N  N382  1  0.42310000  0.62676000  0.51895000  1
  N  N383  1  0.86688000  0.92264000  0.50680000  1
  N  N384  1  0.56262000  0.39652000  0.35496000  1
  N  N385  1  0.22213000  0.07013000  0.37452000  1
  N  N386  1  0.05116000  0.37265000  0.98227000  1
  N  N387  1  0.79166000  0.07794000  0.99181000  1
  N  N388  1  0.04239000  0.39630000  0.85660000  1
  N  N389  1  0.71176000  0.07017000  0.87357000  1
  N  N390  1  0.57689000  0.37324000  0.48104000  1
  N  N391  1  0.13311000  0.07736000  0.49319000  1
  N  N392  1  0.43737000  0.60348000  0.64504000  1
  N  N393  1  0.77786000  0.92987000  0.62548000  1
  N  N394  1  0.94883000  0.62734000  0.01773000  1
  N  N395  1  0.20835000  0.92206000  0.00819000  1
  O  O396  1  0.18897000  0.61697000  0.08560000  1
  O  O397  1  0.28214000  0.60305000  0.00025000  1
  O  O398  1  0.13741000  0.48560000  0.12483000  1
  O  O399  1  0.95094000  0.50013000  0.07520000  1
  O  O400  1  0.08722000  0.03654000  0.12148000  1
  O  O401  1  0.91839000  0.00697000  0.16787000  1
  O  O402  1  0.91620000  0.94114000  0.99786000  1
  O  O403  1  0.71471000  0.96653000  0.96014000  1
  O  O404  1  0.91021000  0.27119000  0.23856000  1
  O  O405  1  0.63782000  0.74909000  0.12494000  1
  O  O406  1  0.81109000  0.80373000  0.39230000  1
  O  O407  1  0.56979000  0.84012000  0.24443000  1
  O  O408  1  0.53759000  0.74866000  0.40353000  1
  O  O409  1  0.73020000  0.69942000  0.26123000  1
  O  O410  1  0.80702000  0.38328000  0.41211000  1
  O  O411  1  0.88720000  0.39975000  0.49638000  1
  O  O412  1  0.62427000  0.51499000  0.37213000  1
  O  O413  1  0.45487000  0.49975000  0.42323000  1
  O  O414  1  0.12845000  0.96316000  0.37822000  1
  O  O415  1  0.92983000  0.99383000  0.33248000  1
  O  O416  1  0.85521000  0.05877000  0.50218000  1
  O  O417  1  0.67773000  0.03402000  0.53980000  1
  O  O418  1  0.17428000  0.72826000  0.26190000  1
  O  O419  1  0.38977000  0.25128000  0.37460000  1
  O  O420  1  0.61211000  0.19712000  0.10511000  1
  O  O421  1  0.41770000  0.15722000  0.25542000  1
  O  O422  1  0.28171000  0.25095000  0.09909000  1
  O  O423  1  0.43122000  0.29980000  0.23855000  1
  O  O424  1  0.81102000  0.38302000  0.91439000  1
  O  O425  1  0.71787000  0.39695000  0.99974000  1
  O  O426  1  0.86250000  0.51440000  0.87514000  1
  O  O427  1  0.04848000  0.49996000  0.92509000  1
  O  O428  1  0.91277000  0.96346000  0.87851000  1
  O  O429  1  0.08160000  0.99303000  0.83212000  1
  O  O430  1  0.08381000  0.05886000  0.00213000  1
  O  O431  1  0.28529000  0.03348000  0.03986000  1
  O  O432  1  0.08975000  0.72880000  0.76145000  1
  O  O433  1  0.36217000  0.25091000  0.87506000  1
  O  O434  1  0.18889000  0.19627000  0.60769000  1
  O  O435  1  0.43020000  0.15988000  0.75557000  1
  O  O436  1  0.46240000  0.25134000  0.59646000  1
  O  O437  1  0.26979000  0.30059000  0.73877000  1
  O  O438  1  0.19298000  0.61672000  0.58789000  1
  O  O439  1  0.11279000  0.60026000  0.50362000  1
  O  O440  1  0.37572000  0.48501000  0.62787000  1
  O  O441  1  0.54513000  0.50025000  0.57677000  1
  O  O442  1  0.87154000  0.03685000  0.62178000  1
  O  O443  1  0.07017000  0.00617000  0.66751000  1
  O  O444  1  0.14479000  0.94123000  0.49782000  1
  O  O445  1  0.32227000  0.96599000  0.46019000  1
  O  O446  1  0.82572000  0.27174000  0.73810000  1
  O  O447  1  0.61022000  0.74873000  0.62539000  1
  O  O448  1  0.38789000  0.80288000  0.89488000  1
  O  O449  1  0.58230000  0.84278000  0.74458000  1
  O  O450  1  0.71827000  0.74905000  0.90091000  1
  O  O451  1  0.56877000  0.70020000  0.76144000  1
