# generated using pymatgen
data_CuH14C10BrN4
_symmetry_space_group_name_H-M   'P 1'
_cell_length_a   5.30794000
_cell_length_b   11.44187998
_cell_length_c   11.44141322
_cell_angle_alpha   69.59011681
_cell_angle_beta   76.62288260
_cell_angle_gamma   76.63080088
_symmetry_Int_Tables_number   1
_chemical_formula_structural   CuH14C10BrN4
_chemical_formula_sum   'Cu2 H28 C20 Br2 N8'
_cell_volume   624.88193883
_cell_formula_units_Z   2
loop_
 _symmetry_equiv_pos_site_id
 _symmetry_equiv_pos_as_xyz
  1  'x, y, z'
loop_
 _atom_site_type_symbol
 _atom_site_label
 _atom_site_symmetry_multiplicity
 _atom_site_fract_x
 _atom_site_fract_y
 _atom_site_fract_z
 _atom_site_occupancy
  Cu  Cu0  1  0.92632000  0.09998000  0.39884000  1
  Cu  Cu1  1  0.42651000  0.89881000  0.59995000  1
  H  H2  1  0.08965000  0.15016000  0.59782000  1
  H  H3  1  0.66634000  0.35223000  0.25769000  1
  H  H4  1  0.59493000  0.50892000  0.26923000  1
  H  H5  1  0.37550000  0.39838000  0.35348000  1
  H  H6  1  0.06097000  0.27222000  0.76995000  1
  H  H7  1  0.94615000  0.43887000  0.71619000  1
  H  H8  1  0.25500000  0.37239000  0.64421000  1
  H  H9  1  0.83830000  0.84904000  0.40050000  1
  H  H10  1  0.28460000  0.64410000  0.74305000  1
  H  H11  1  0.37418000  0.48871000  0.72802000  1
  H  H12  1  0.12795000  0.60231000  0.64666000  1
  H  H13  1  0.10415000  0.72681000  0.22850000  1
  H  H14  1  0.10108000  0.56039000  0.28185000  1
  H  H15  1  0.27222000  0.62626000  0.35417000  1
  H  H16  1  0.58985000  0.09764000  0.65018000  1
  H  H17  1  0.16641000  0.75757000  0.85231000  1
  H  H18  1  0.09418000  0.76937000  0.00894000  1
  H  H19  1  0.87531000  0.85340000  0.89809000  1
  H  H20  1  0.56113000  0.26973000  0.77243000  1
  H  H21  1  0.44630000  0.21577000  0.93911000  1
  H  H22  1  0.75508000  0.14384000  0.87248000  1
  H  H23  1  0.33807000  0.90053000  0.34905000  1
  H  H24  1  0.78539000  0.24327000  0.14387000  1
  H  H25  1  0.87407000  0.22791000  0.98860000  1
  H  H26  1  0.62791000  0.14680000  0.10261000  1
  H  H27  1  0.60395000  0.72850000  0.22685000  1
  H  H28  1  0.60097000  0.78189000  0.06040000  1
  H  H29  1  0.77192000  0.85425000  0.12635000  1
  C  C30  1  0.76615000  0.43098000  0.50699000  1
  C  C31  1  0.91975000  0.34134000  0.59337000  1
  C  C32  1  0.72872000  0.36396000  0.42905000  1
  C  C33  1  0.58366000  0.40931000  0.32125000  1
  C  C34  1  0.04983000  0.35668000  0.68661000  1
  C  C35  1  0.70540000  0.56786000  0.49159000  1
  C  C36  1  0.85552000  0.65762000  0.40522000  1
  C  C37  1  0.52332000  0.63473000  0.56960000  1
  C  C38  1  0.31702000  0.58902000  0.67795000  1
  C  C39  1  0.09361000  0.64234000  0.31177000  1
  C  C40  1  0.26594000  0.00689000  0.93098000  1
  C  C41  1  0.41966000  0.09323000  0.84137000  1
  C  C42  1  0.22848000  0.92902000  0.86393000  1
  C  C43  1  0.08334000  0.82121000  0.90926000  1
  C  C44  1  0.54993000  0.18633000  0.85682000  1
  C  C45  1  0.20519000  0.99153000  0.06788000  1
  C  C46  1  0.35532000  0.90519000  0.15764000  1
  C  C47  1  0.02329000  0.06965000  0.13471000  1
  C  C48  1  0.81719000  0.17802000  0.08900000  1
  C  C49  1  0.59338000  0.81179000  0.14239000  1
  Br  Br50  1  0.93778000  0.89873000  0.59983000  1
  Br  Br51  1  0.43770000  0.09982000  0.39877000  1
  N  N52  1  0.84973000  0.24290000  0.46658000  1
  N  N53  1  0.95660000  0.23033000  0.56841000  1
  N  N54  1  0.56073000  0.75586000  0.53212000  1
  N  N55  1  0.75637000  0.76856000  0.43020000  1
  N  N56  1  0.34957000  0.96653000  0.74288000  1
  N  N57  1  0.45655000  0.06830000  0.73035000  1
  N  N58  1  0.06074000  0.03222000  0.25583000  1
  N  N59  1  0.25627000  0.93024000  0.26861000  1
