# generated using pymatgen
data_H21(C9N)4
_symmetry_space_group_name_H-M   'P 1'
_cell_length_a   23.50530000
_cell_length_b   23.77090000
_cell_length_c   46.62270000
_cell_angle_alpha   90.00000000
_cell_angle_beta   90.00000000
_cell_angle_gamma   90.00000000
_symmetry_Int_Tables_number   1
_chemical_formula_structural   H21(C9N)4
_chemical_formula_sum   'H252 C432 N48'
_cell_volume   26050.06697336
_cell_formula_units_Z   12
loop_
 _symmetry_equiv_pos_site_id
 _symmetry_equiv_pos_as_xyz
  1  'x, y, z'
loop_
 _atom_site_type_symbol
 _atom_site_label
 _atom_site_symmetry_multiplicity
 _atom_site_fract_x
 _atom_site_fract_y
 _atom_site_fract_z
 _atom_site_occupancy
  C  4  1  0.62962600  0.25068800  0.14437700  1
  C  5  1  0.62891350  0.25763900  0.09603750  1
  C  6  1  0.57262400  0.25731100  0.10571100  1
  C  7  1  0.57305150  0.25169600  0.13514800  1
  C  8  1  0.64570050  0.25995700  0.06669550  1
  C  9  1  0.60193250  0.26265300  0.04552200  1
  C  10  1  0.56949700  0.21428000  0.03907150  1
  C  11  1  0.52405850  0.21731500  0.01955600  1
  C  12  1  0.51040700  0.26847700  0.00563500  1
  C  13  1  0.54414750  0.31639600  0.01133350  1
  C  14  1  0.58895900  0.31370700  0.03138350  1
  C  21  1  0.92975800  0.25887800  0.13384500  1
  C  22  1  0.92934750  0.25142100  0.10451650  1
  C  23  1  0.87277950  0.24985500  0.09529700  1
  C  25  1  0.87346550  0.25961500  0.14350900  1
  C  27  1  0.70278600  0.25596800  0.05693850  1
  C  29  1  0.79775300  0.24766900  0.05674050  1
  C  30  1  0.77912650  0.24718300  0.02829400  1
  C  31  1  0.72063200  0.25275400  0.02840750  1
  C  32  1  0.85507950  0.24451600  0.06619800  1
  C  33  1  0.89813700  0.23757000  0.04492600  1
  C  34  1  0.91010550  0.18392500  0.03326700  1
  C  35  1  0.95510600  0.17665400  0.01363050  1
  C  36  1  0.98994250  0.22263000  0.00588550  1
  C  37  1  0.97713800  0.27642300  0.01719950  1
  C  38  1  0.93152800  0.28394500  0.03629600  1
  C  95  1  0.25575900  0.63773400  0.06799000  1
  C  96  1  0.25301650  0.61947300  0.09695150  1
  C  98  1  0.24516150  0.62040000  0.14484700  1
  C  99  1  0.24720750  0.56431800  0.13595800  1
  C  100  1  0.25259000  0.56375700  0.10645750  1
  C  101  1  0.26070400  0.59565000  0.04631050  1
  C  102  1  0.21251500  0.57945200  0.03022800  1
  C  103  1  0.21790400  0.54109200  0.00745800  1
  C  104  1  0.31910450  0.53180700  0.01729300  1
  C  105  1  0.31399200  0.57120900  0.03973900  1
  C  134  1  0.25387050  0.86735200  0.14360300  1
  C  136  1  0.24399500  0.86641500  0.09580400  1
  C  137  1  0.24636050  0.92249800  0.10466600  1
  C  138  1  0.25288300  0.92307000  0.13410400  1
  C  139  1  0.23910100  0.84701200  0.06710550  1
  C  140  1  0.24231500  0.78950700  0.05865050  1
  C  142  1  0.25103250  0.69483700  0.05902650  1
  C  143  1  0.24845300  0.71277500  0.03050350  1
  C  144  1  0.24169450  0.77040400  0.03029550  1
  C  145  1  0.23384950  0.88834100  0.04507600  1
  C  146  1  0.28138900  0.90238700  0.02801100  1
  C  147  1  0.27580600  0.94053700  0.00517550  1
  C  148  1  0.17579000  0.95375000  0.01680500  1
  C  149  1  0.18104600  0.91455500  0.03933800  1
  C  370  1  0.15226300  0.21245900  0.31486400  1
  C  372  1  0.21789950  0.13548600  0.31905700  1
  C  373  1  0.27914900  0.01144100  0.26188650  1
  C  374  1  0.28814200  0.06887200  0.25563400  1
  C  375  1  0.27470150  0.11046700  0.27606950  1
  C  376  1  0.25149000  0.09595600  0.30319450  1
  C  377  1  0.25001100  0.03794200  0.31041250  1
  C  381  1  0.03917750  0.27858000  0.25304000  1
  C  382  1  0.02819750  0.28731000  0.28247800  1
  C  383  1  0.06897600  0.27206000  0.30320950  1
  C  384  1  0.12168000  0.24748200  0.29519450  1
  C  385  1  0.13492450  0.24626300  0.26550050  1
  C  386  1  0.09408200  0.26077600  0.24475700  1
  C  391  1  0.35347100  0.28343700  0.31723600  1
  C  392  1  0.64735600  0.24706800  0.17353950  1
  C  393  1  0.60433600  0.24122300  0.19491500  1
  C  394  1  0.57103900  0.28804200  0.20300000  1
  C  395  1  0.52571550  0.28156400  0.22237250  1
  C  396  1  0.51310900  0.22842000  0.23451000  1
  C  397  1  0.54780850  0.18203300  0.22724900  1
  C  398  1  0.59248850  0.18821700  0.20733450  1
  C  399  1  0.46775200  0.22371600  0.25448200  1
  C  400  1  0.47918450  0.21360400  0.28375450  1
  C  401  1  0.43809900  0.22644200  0.30474850  1
  C  402  1  0.38463400  0.24990500  0.29714250  1
  C  403  1  0.37103100  0.25214700  0.26749500  1
  C  404  1  0.41227700  0.24027700  0.24651200  1
  C  413  1  0.85667250  0.26338300  0.17281150  1
  C  414  1  0.79960450  0.25967600  0.18262200  1
  C  415  1  0.70467700  0.25094600  0.18294400  1
  C  416  1  0.72331950  0.25204500  0.21138450  1
  C  417  1  0.78178850  0.25789900  0.21118800  1
  C  418  1  0.90045850  0.26746900  0.19391550  1
  C  419  1  0.91362550  0.31946500  0.20708300  1
  C  420  1  0.93306600  0.21959300  0.20106300  1
  C  421  1  0.97892100  0.22402000  0.22025750  1
  C  422  1  0.99284750  0.27613600  0.23315250  1
  C  423  1  0.95890300  0.32359400  0.22680700  1
  C  487  1  0.28628850  0.35915800  0.32213700  1
  C  488  1  0.24157700  0.63979700  0.17359600  1
  C  489  1  0.23672550  0.59849900  0.19566600  1
  C  490  1  0.18391150  0.57262300  0.20177350  1
  C  491  1  0.17895750  0.53362700  0.22441200  1
  C  492  1  0.22638250  0.52088500  0.24186200  1
  C  493  1  0.27932500  0.54628400  0.23539150  1
  C  494  1  0.28458850  0.58426300  0.21245850  1
  C  495  1  0.22306150  0.48159500  0.26475100  1
  C  496  1  0.24050450  0.49747800  0.29257300  1
  C  497  1  0.25411050  0.45648900  0.31317700  1
  C  498  1  0.25207650  0.39830700  0.30641500  1
  C  499  1  0.22777600  0.38302600  0.27965450  1
  C  500  1  0.21343400  0.42402000  0.25906450  1
  C  514  1  0.96319000  0.54258200  0.33163900  1
  C  543  1  0.25253850  0.77405000  0.21008550  1
  C  544  1  0.24573350  0.71642600  0.21036600  1
  C  545  1  0.24519100  0.69730800  0.18201200  1
  C  546  1  0.25384350  0.79198500  0.18154150  1
  C  547  1  0.25799450  0.84910300  0.17252700  1
  C  548  1  0.26352750  0.89125600  0.19413450  1
  C  549  1  0.31674900  0.91657400  0.19993550  1
  C  550  1  0.21588950  0.90706300  0.21072700  1
  C  551  1  0.22177100  0.94598400  0.23320900  1
  C  552  1  0.27511250  0.97082800  0.23936400  1
  C  553  1  0.32233300  0.95654600  0.22209000  1
  C  559  1  0.26293350  0.99573200  0.29000250  1
  C  564  1  0.53859550  0.94930000  0.33273500  1
  C  810  1  0.14158450  0.14524300  0.35295450  1
  C  814  1  0.14746900  0.27927600  0.42188400  1
  C  817  1  0.28311300  0.12764800  0.42040900  1
  C  819  1  0.22185300  0.00334400  0.47756450  1
  C  820  1  0.21202400  0.06074500  0.48359900  1
  C  821  1  0.22583550  0.10232200  0.46322000  1
  C  822  1  0.25004050  0.08781500  0.43632400  1
  C  823  1  0.25263700  0.02978800  0.42926750  1
  C  826  1  0.03315600  0.21760100  0.48431250  1
  C  827  1  0.08878100  0.23360600  0.49230300  1
  C  828  1  0.12972450  0.24649800  0.47133550  1
  C  829  1  0.11579500  0.24555500  0.44171800  1
  C  830  1  0.06214450  0.22271200  0.43396650  1
  C  831  1  0.02126350  0.20909500  0.45494550  1
  C  834  1  0.01809150  0.03038400  0.38285100  1
  C  835  1  0.07613500  0.02040600  0.38877850  1
  C  836  1  0.11725450  0.06154100  0.38220250  1
  C  837  1  0.10163400  0.11369400  0.36964300  1
  C  838  1  0.04266650  0.12581500  0.36752500  1
  C  839  1  0.00158650  0.08456400  0.37363450  1
  C  844  1  0.35885400  0.13898900  0.38635250  1
  C  846  1  0.34810400  0.20526600  0.42486800  1
  C  847  1  0.46184350  0.27014500  0.48660450  1
  C  848  1  0.40712700  0.25194100  0.49499400  1
  C  849  1  0.36601500  0.23782700  0.47431400  1
  C  850  1  0.37875500  0.24010500  0.44458100  1
  C  851  1  0.43110250  0.26533600  0.43651900  1
  C  852  1  0.47222100  0.27993600  0.45719650  1
  C  855  1  0.48508200  0.02867300  0.35473700  1
  C  856  1  0.49999250  0.08364600  0.36341650  1
  C  857  1  0.45769800  0.12330900  0.37015450  1
  C  858  1  0.39912200  0.10894000  0.36912100  1
  C  859  1  0.38482650  0.05603100  0.35697200  1
  C  860  1  0.42709950  0.01639900  0.34990000  1
  C  928  1  0.13813550  0.34678300  0.38380350  1
  C  929  1  0.21545850  0.35412800  0.41725050  1
  C  931  1  0.27789450  0.47503100  0.47560300  1
  C  932  1  0.26107450  0.49157400  0.44778750  1
  C  933  1  0.24817600  0.45111300  0.42679950  1
  C  934  1  0.24993950  0.39274900  0.43320400  1
  C  935  1  0.27380000  0.37686600  0.45998850  1
  C  936  1  0.28755900  0.41735200  0.48093950  1
  C  941  1  0.01587100  0.46274600  0.35347900  1
  C  942  1  0.07417300  0.47256800  0.34819050  1
  C  943  1  0.11486100  0.43110700  0.35490550  1
  C  944  1  0.09857900  0.37879800  0.36709450  1
  C  945  1  0.03947700  0.36694500  0.36861150  1
  C  946  1  0.27327200  0.51359000  0.49873050  1
  C  947  1  0.99850000  0.40848600  0.36229850  1
  C  949  1  0.36362400  0.35027200  0.35558750  1
  C  950  1  0.64641150  0.64405400  0.37308000  1
  C  951  1  0.60425750  0.60130100  0.37612150  1
  C  952  1  0.58806450  0.56853800  0.35221700  1
  C  953  1  0.55001250  0.52342100  0.35553700  1
  C  954  1  0.52647700  0.51050000  0.38269350  1
  C  955  1  0.54099850  0.54464700  0.40638900  1
  C  956  1  0.58013550  0.58913200  0.40321000  1
  C  957  1  0.48737700  0.46523500  0.38514200  1
  C  958  1  0.50365850  0.41055500  0.37664500  1
  C  959  1  0.46237550  0.36937100  0.37074650  1
  C  960  1  0.40343250  0.38207300  0.37225650  1
  C  961  1  0.38798850  0.43484200  0.38421350  1
  C  962  1  0.42928100  0.47595600  0.39053300  1
  C  968  1  0.85794050  0.64341500  0.36396000  1
  C  969  1  0.79993200  0.62651600  0.36603600  1
  C  971  1  0.70427200  0.62679300  0.37078800  1
  C  972  1  0.72280800  0.57093100  0.37015800  1
  C  973  1  0.78102100  0.57077000  0.36650400  1
  C  974  1  0.89986950  0.60034600  0.36132200  1
  C  975  1  0.91509700  0.56771100  0.38543150  1
  C  976  1  0.95268300  0.52212000  0.38249700  1
  C  977  1  0.97670650  0.50855100  0.35553100  1
  C  978  1  0.92452300  0.58757300  0.33442900  1
  C  1046  1  0.23943050  0.98760900  0.44965000  1
  C  1047  1  0.22458700  0.96265400  0.50013000  1
  C  1048  1  0.62748500  0.70065700  0.37125350  1
  C  1050  1  0.62769700  0.79449600  0.36673150  1
  C  1051  1  0.57111900  0.77667400  0.36793000  1
  C  1052  1  0.57099600  0.71886800  0.37095900  1
  C  1053  1  0.64691900  0.85096300  0.36454050  1
  C  1054  1  0.60485900  0.89395000  0.36198250  1
  C  1055  1  0.57841400  0.90526400  0.33535300  1
  C  1056  1  0.52562550  0.98387900  0.35650550  1
  C  1057  1  0.55164700  0.97188800  0.38319750  1
  C  1058  1  0.59042650  0.92724100  0.38598250  1
  C  1065  1  0.78226000  0.92345600  0.36943250  1
  C  1066  1  0.72395000  0.92359200  0.36616250  1
  C  1067  1  0.70498550  0.86785700  0.36615750  1
  C  1069  1  0.80076850  0.86759800  0.37029600  1
  C  1070  1  0.85867000  0.85032700  0.37230800  1
  C  1071  1  0.87755600  0.79371800  0.37042400  1
  C  1073  1  0.87722800  0.69988100  0.36589450  1
  C  1074  1  0.93383200  0.71770100  0.36663800  1
  C  1075  1  0.93403400  0.77549700  0.36975250  1
  C  1076  1  0.90090950  0.89309400  0.37495000  1
  C  1077  1  0.92530300  0.90594000  0.40189400  1
  C  1078  1  0.91684550  0.92526400  0.35079600  1
  C  1079  1  0.95486150  0.97051000  0.35373850  1
  C  1080  1  0.96440500  0.95056200  0.40469350  1
  C  1088  1  0.97862500  0.98418100  0.38075350  1
  C  1469  1  0.62740100  0.23745500  0.64388150  1
  C  1471  1  0.62700850  0.24736200  0.59567700  1
  C  1472  1  0.57065000  0.24607800  0.60522800  1
  C  1473  1  0.57088900  0.23867300  0.63456100  1
  C  1474  1  0.64401000  0.25197400  0.56643750  1
  C  1475  1  0.60036650  0.25676500  0.54531050  1
  C  1476  1  0.56802100  0.20907400  0.53757300  1
  C  1477  1  0.52210400  0.21421400  0.51846700  1
  C  1478  1  0.50784900  0.26689500  0.50627150  1
  C  1479  1  0.54160550  0.31418600  0.51315750  1
  C  1480  1  0.58692850  0.30932100  0.53280800  1
  C  1486  1  0.92761300  0.24566300  0.63387800  1
  C  1487  1  0.92738100  0.23999500  0.60444050  1
  C  1488  1  0.87087600  0.23937400  0.59509750  1
  C  1490  1  0.87125450  0.24620300  0.64344750  1
  C  1492  1  0.70113450  0.24869100  0.55667950  1
  C  1494  1  0.79609250  0.24032200  0.55642100  1
  C  1495  1  0.77761050  0.24241000  0.52796750  1
  C  1496  1  0.71911950  0.24802200  0.52813000  1
  C  1497  1  0.85338100  0.23638900  0.56587800  1
  C  1498  1  0.89656600  0.23160800  0.54450300  1
  C  1499  1  0.90821550  0.17937800  0.53120800  1
  C  1500  1  0.95274300  0.17434400  0.51112200  1
  C  1501  1  0.98747050  0.22109500  0.50452250  1
  C  1502  1  0.97510600  0.27346700  0.51755800  1
  C  1503  1  0.92993700  0.27882200  0.53711150  1
  C  1560  1  0.25455800  0.63191800  0.56697600  1
  C  1561  1  0.25052050  0.61278900  0.59575250  1
  C  1563  1  0.24103600  0.61225700  0.64357500  1
  C  1564  1  0.24313550  0.55645100  0.63425450  1
  C  1565  1  0.24952600  0.55678400  0.60480400  1
  C  1566  1  0.26052850  0.59048900  0.54505100  1
  C  1567  1  0.21307100  0.57475900  0.52831450  1
  C  1568  1  0.21951550  0.53713400  0.50530500  1
  C  1569  1  0.32031150  0.52766600  0.51616900  1
  C  1570  1  0.31414350  0.56633900  0.53887700  1
  C  1598  1  0.24972300  0.85922300  0.64414250  1
  C  1600  1  0.24144100  0.85974000  0.59626250  1
  C  1601  1  0.24321300  0.91554800  0.60559450  1
  C  1602  1  0.24875600  0.91522600  0.63508450  1
  C  1603  1  0.23782350  0.84120700  0.56736700  1
  C  1604  1  0.24154950  0.78393700  0.55854900  1
  C  1606  1  0.25030650  0.68926900  0.55836200  1
  C  1607  1  0.24921500  0.70800200  0.52994800  1
  C  1608  1  0.24242950  0.76562700  0.53006150  1
  C  1609  1  0.23354700  0.88318500  0.54559300  1
  C  1610  1  0.28179750  0.89774000  0.52915200  1
  C  1611  1  0.27721200  0.93661100  0.50657100  1
  C  1612  1  0.17677050  0.94957100  0.51724550  1
  C  1613  1  0.18103350  0.90965700  0.53950300  1
  C  1834  1  0.14709650  0.19911300  0.81635150  1
  C  1836  1  0.21334350  0.12271600  0.82083100  1
  C  1837  1  0.28460950  0.05742000  0.75741850  1
  C  1838  1  0.27104750  0.09864700  0.77802250  1
  C  1839  1  0.24757750  0.08364000  0.80502200  1
  C  1840  1  0.24627350  0.02551200  0.81201450  1
  C  1845  1  0.03517800  0.26449100  0.75382900  1
  C  1846  1  0.02337850  0.27312300  0.78319500  1
  C  1847  1  0.06373150  0.25816700  0.80418850  1
  C  1848  1  0.11682700  0.23402000  0.79651000  1
  C  1849  1  0.13086150  0.23295700  0.76690650  1
  C  1850  1  0.09043450  0.24714900  0.74589950  1
  C  1856  1  0.34795950  0.26996100  0.81499450  1
  C  1857  1  0.64489600  0.23259000  0.67303450  1
  C  1858  1  0.60164200  0.22671200  0.69429950  1
  C  1859  1  0.56874100  0.27373000  0.70250000  1
  C  1860  1  0.52298350  0.26736700  0.72161850  1
  C  1861  1  0.50951250  0.21411700  0.73338850  1
  C  1862  1  0.54384650  0.16750100  0.72605500  1
  C  1863  1  0.58898450  0.17359400  0.70638950  1
  C  1864  1  0.46352700  0.20952100  0.75300250  1
  C  1865  1  0.47401100  0.19916000  0.78234100  1
  C  1866  1  0.43242800  0.21225300  0.80304700  1
  C  1867  1  0.37941600  0.23626600  0.79508250  1
  C  1868  1  0.36671200  0.23880700  0.76534150  1
  C  1869  1  0.40844800  0.22664200  0.74465000  1
  C  1877  1  0.85422450  0.24880600  0.67274750  1
  C  1878  1  0.79710550  0.24464700  0.68243800  1
  C  1879  1  0.70216950  0.23596100  0.68255550  1
  C  1880  1  0.72064250  0.23614700  0.71102950  1
  C  1881  1  0.77911350  0.24198900  0.71096050  1
  C  1882  1  0.89779200  0.25291000  0.69395600  1
  C  1883  1  0.91017150  0.30481400  0.70740650  1
  C  1884  1  0.93082400  0.20526900  0.70100500  1
  C  1885  1  0.97629900  0.20985700  0.72042350  1
  C  1886  1  0.98939150  0.26188800  0.73363300  1
  C  1887  1  0.95504450  0.30908700  0.72734450  1
  C  1951  1  0.28145750  0.34633500  0.81960600  1
  C  1952  1  0.23688450  0.63078800  0.67245250  1
  C  1953  1  0.23220900  0.58882100  0.69420800  1
  C  1954  1  0.17947850  0.56270900  0.70023050  1
  C  1955  1  0.17476200  0.52304500  0.72258450  1
  C  1956  1  0.22235350  0.50983100  0.73983050  1
  C  1957  1  0.27521200  0.53546200  0.73343450  1
  C  1958  1  0.28023450  0.57411100  0.71077900  1
  C  1959  1  0.21922700  0.47002200  0.76249550  1
  C  1960  1  0.23661650  0.48537000  0.79040500  1
  C  1961  1  0.25004000  0.44399500  0.81083850  1
  C  1962  1  0.24786350  0.38592900  0.80383450  1
  C  1963  1  0.22384500  0.37116500  0.77693500  1
  C  1964  1  0.20966700  0.41255000  0.75651650  1
  C  1977  1  0.95981800  0.52956100  0.83091050  1
  C  2005  1  0.24794950  0.76396100  0.70993350  1
  C  2006  1  0.24115550  0.70633500  0.70979150  1
  C  2007  1  0.24039600  0.68805600  0.68129800  1
  C  2008  1  0.24904150  0.78273800  0.68152650  1
  C  2009  1  0.25328550  0.84010300  0.67293950  1
  C  2010  1  0.25905400  0.88158200  0.69486250  1
  C  2011  1  0.31237850  0.90665100  0.70071100  1
  C  2012  1  0.21162250  0.89692600  0.71171200  1
  C  2013  1  0.21780800  0.93517900  0.73447050  1
  C  2014  1  0.27125500  0.95977700  0.74066100  1
  C  2015  1  0.31826200  0.94595500  0.72314750  1
  C  2021  1  0.27555250  0.99926400  0.76339550  1
  C  2022  1  0.25934150  0.98366500  0.79143950  1
  C  2027  1  0.53535400  0.93650400  0.83284100  1
  C  2274  1  0.13572000  0.13119000  0.85406250  1
  C  2278  1  0.15201800  0.27632200  0.92361150  1
  C  2281  1  0.28494800  0.12729800  0.91816950  1
  C  2283  1  0.21180050  0.06417800  0.98163000  1
  C  2284  1  0.22660850  0.10497100  0.96102650  1
  C  2285  1  0.24976200  0.08923500  0.93407150  1
  C  2286  1  0.24959150  0.03111100  0.92709900  1
  C  2289  1  0.03649650  0.21686000  0.98570850  1
  C  2290  1  0.09178500  0.23339500  0.99399750  1
  C  2291  1  0.13345650  0.24517800  0.97323300  1
  C  2292  1  0.12056350  0.24253400  0.94352200  1
  C  2293  1  0.06751050  0.21850600  0.93562150  1
  C  2294  1  0.02582550  0.20618800  0.95641150  1
  C  2297  1  0.01204500  0.01515500  0.88270300  1
  C  2298  1  0.07002000  0.00525300  0.88880850  1
  C  2299  1  0.11109400  0.04664000  0.88260450  1
  C  2300  1  0.09551750  0.09903500  0.87029400  1
  C  2301  1  0.03654450  0.11099500  0.86798300  1
  C  2304  1  0.21933950  0.00641400  0.97569200  1
  C  2306  1  0.36251150  0.13432000  0.88485850  1
  C  2308  1  0.35297800  0.20230200  0.92265350  1
  C  2309  1  0.46541000  0.26947400  0.98468450  1
  C  2310  1  0.41024700  0.25204200  0.99275900  1
  C  2311  1  0.36991800  0.23682800  0.97188050  1
  C  2312  1  0.38389600  0.23709200  0.94226700  1
  C  2313  1  0.43702300  0.26085400  0.93437500  1
  C  2314  1  0.47726450  0.27677400  0.95522900  1
  C  2318  1  0.48429400  0.01739200  0.85488500  1
  C  2319  1  0.50162850  0.07152800  0.86378600  1
  C  2320  1  0.46116400  0.11329500  0.87004750  1
  C  2321  1  0.40198750  0.10195800  0.86827450  1
  C  2322  1  0.38551250  0.04976200  0.85602650  1
  C  2323  1  0.42597900  0.00801900  0.84942650  1
  C  2330  1  0.99488700  0.06943900  0.87365400  1
  C  2389  1  0.27131050  0.51720600  0.99986250  1
  C  2392  1  0.14155300  0.34204000  0.88477050  1
  C  2393  1  0.21696550  0.35378300  0.91898450  1
  C  2397  1  0.27506300  0.47805300  0.97692850  1
  C  2398  1  0.25646200  0.49351900  0.94923650  1
  C  2399  1  0.24462950  0.45232800  0.92845400  1
  C  2400  1  0.24929850  0.39415900  0.93493400  1
  C  2401  1  0.27432700  0.37956300  0.96163250  1
  C  2402  1  0.28710950  0.42083200  0.98234900  1
  C  2406  1  0.01488300  0.45125800  0.85274150  1
  C  2407  1  0.07282150  0.46398500  0.84806100  1
  C  2408  1  0.11531150  0.42467100  0.85526900  1
  C  2409  1  0.10123000  0.37168200  0.86738850  1
  C  2410  1  0.04277050  0.35678700  0.86818100  1
  C  2411  1  0.99996800  0.39618600  0.86137200  1
  C  2413  1  0.35761900  0.33622800  0.85363150  1
  C  2414  1  0.64073200  0.62870000  0.87292050  1
  C  2415  1  0.59852600  0.58596600  0.87584700  1
  C  2416  1  0.58212400  0.55369600  0.85180800  1
  C  2417  1  0.54386400  0.50871200  0.85495150  1
  C  2418  1  0.52033150  0.49541700  0.88206400  1
  C  2419  1  0.53506650  0.52908200  0.90590300  1
  C  2420  1  0.57439500  0.57345700  0.90289350  1
  C  2421  1  0.48119600  0.45014300  0.88431800  1
  C  2422  1  0.49749400  0.39569100  0.87546400  1
  C  2423  1  0.45621200  0.35479100  0.86911300  1
  C  2424  1  0.39726950  0.36746700  0.87065600  1
  C  2425  1  0.38176800  0.41985800  0.88301500  1
  C  2426  1  0.42306700  0.46076500  0.88969600  1
  C  2432  1  0.85219950  0.62791900  0.86331750  1
  C  2433  1  0.79419750  0.61105800  0.86552600  1
  C  2435  1  0.69856450  0.61139300  0.87050200  1
  C  2436  1  0.71704200  0.55551800  0.86968050  1
  C  2437  1  0.77522750  0.55533100  0.86588400  1
  C  2438  1  0.89417300  0.58491000  0.86051550  1
  C  2439  1  0.90937350  0.55184300  0.88447700  1
  C  2440  1  0.94820100  0.50728800  0.88150400  1
  C  2441  1  0.97353900  0.49521400  0.85465750  1
  C  2442  1  0.91992650  0.57348500  0.83372500  1
  C  2507  1  0.22287100  0.96628300  0.99846000  1
  C  2510  1  0.23527050  0.98967400  0.94767600  1
  C  2512  1  0.62181750  0.68531700  0.87116450  1
  C  2514  1  0.62204900  0.77916300  0.86668950  1
  C  2515  1  0.56546850  0.76138500  0.86791750  1
  C  2516  1  0.56533450  0.70357300  0.87092600  1
  C  2517  1  0.64130000  0.83560800  0.86451250  1
  C  2518  1  0.59933750  0.87870700  0.86214000  1
  C  2519  1  0.57392150  0.89138200  0.83541850  1
  C  2520  1  0.52266950  0.97076900  0.85676750  1
  C  2521  1  0.54743200  0.95726100  0.88357350  1
  C  2522  1  0.58495950  0.91156800  0.88630200  1
  C  2529  1  0.77670950  0.90801100  0.86916800  1
  C  2530  1  0.71837450  0.90819200  0.86606000  1
  C  2531  1  0.69939000  0.85245800  0.86597850  1
  C  2533  1  0.79519500  0.85213700  0.86986450  1
  C  2534  1  0.85309450  0.83482900  0.87174350  1
  C  2535  1  0.87193050  0.77821800  0.86980950  1
  C  2537  1  0.87152200  0.68439000  0.86526100  1
  C  2538  1  0.92814300  0.70218800  0.86598700  1
  C  2539  1  0.92839300  0.75997600  0.86910600  1
  C  2540  1  0.89534050  0.87757100  0.87444450  1
  C  2541  1  0.91964450  0.89027700  0.90142250  1
  C  2542  1  0.91117300  0.91000300  0.85036250  1
  C  2543  1  0.94901300  0.95537000  0.85341350  1
  C  2544  1  0.95857950  0.93500400  0.90432800  1
  C  2552  1  0.97269650  0.96888700  0.88046600  1
  H  1  1  0.00119850  0.31079600  0.01154150  1
  H  2  1  0.10046050  0.24248100  0.01564950  1
  H  3  1  0.20220950  0.07715800  0.00263200  1
  H  15  1  0.53719350  0.24978000  0.14749600  1
  H  16  1  0.53641350  0.25928400  0.09362750  1
  H  17  1  0.57808800  0.17675300  0.04894600  1
  H  18  1  0.50134200  0.18148200  0.01536500  1
  H  20  1  0.40078350  0.24505700  0.01452900  1
  H  39  1  0.96596950  0.26120600  0.14591250  1
  H  40  1  0.96521950  0.24864400  0.09222150  1
  H  41  1  0.80037500  0.25409100  0.11967700  1
  H  42  1  0.70201850  0.25356300  0.11993750  1
  H  43  1  0.80358050  0.24417300  0.01023300  1
  H  44  1  0.69567500  0.25318600  0.01045850  1
  H  45  1  0.88660950  0.14966000  0.03930600  1
  H  46  1  0.92386200  0.32319200  0.04448000  1
  H  47  1  0.96327400  0.13735100  0.00567300  1
  H  106  1  0.24627250  0.52922900  0.14861600  1
  H  107  1  0.25469050  0.52817900  0.09419550  1
  H  108  1  0.17345200  0.59654400  0.03452850  1
  H  109  1  0.29864950  0.40804000  0.00312000  1
  H  110  1  0.34953250  0.58239900  0.05107000  1
  H  111  1  0.35821200  0.51506300  0.01278950  1
  H  112  1  0.61186950  0.34932100  0.03572100  1
  H  113  1  0.53545050  0.35385900  0.00144500  1
  H  150  1  0.25058850  0.74385000  0.14510450  1
  H  151  1  0.24915300  0.74295400  0.09549300  1
  H  152  1  0.25537350  0.95865700  0.14633850  1
  H  153  1  0.24457400  0.95759300  0.09203700  1
  H  154  1  0.32014200  0.88414800  0.03176800  1
  H  155  1  0.14601100  0.90501400  0.05143200  1
  H  156  1  0.23843250  0.79398100  0.01204500  1
  H  157  1  0.24989000  0.68848200  0.01243900  1
  H  158  1  0.13709600  0.97199700  0.01297650  1
  H  378  1  0.23280900  0.02475000  0.32941450  1
  H  379  1  0.27562950  0.15154500  0.26953300  1
  H  380  1  0.29795350  0.08125300  0.23518850  1
  H  387  1  0.17169250  0.22802900  0.25832350  1
  H  388  1  0.10289450  0.25292500  0.22361750  1
  H  389  1  0.05667400  0.27275200  0.32424950  1
  H  390  1  0.00215850  0.18854100  0.22491500  1
  H  405  1  0.57866850  0.32685300  0.19428500  1
  H  406  1  0.50214400  0.31626200  0.22768850  1
  H  407  1  0.61595150  0.15365100  0.20172600  1
  H  408  1  0.53979900  0.14317800  0.23579900  1
  H  409  1  0.51946500  0.20334800  0.29028800  1
  H  410  1  0.45038450  0.22470400  0.32578550  1
  H  411  1  0.40307600  0.24912500  0.22551600  1
  H  412  1  0.33382700  0.26994800  0.26062100  1
  H  424  1  0.92441700  0.18143100  0.19185400  1
  H  425  1  0.80674500  0.25954100  0.22911900  1
  H  426  1  0.69887550  0.25005100  0.22948450  1
  H  427  1  0.98760050  0.29813900  0.28924550  1
  H  501  1  0.32335150  0.60227500  0.20844250  1
  H  502  1  0.31482750  0.53691100  0.24719350  1
  H  503  1  0.20282400  0.41109100  0.23881100  1
  H  504  1  0.22636200  0.34175100  0.27346850  1
  H  505  1  0.27206150  0.47017800  0.33191100  1
  H  506  1  0.24880400  0.53881200  0.29715750  1
  H  507  1  0.14024000  0.51563500  0.22849850  1
  H  508  1  0.14862600  0.58232100  0.18989650  1
  H  509  1  0.60498500  0.57641500  0.33238100  1
  H  510  1  0.96779150  0.36172700  0.23595800  1
  H  511  1  0.89065350  0.35475800  0.20218800  1
  H  512  1  0.91393250  0.61051900  0.31663550  1
  H  513  1  0.98012750  0.53384900  0.31191250  1
  H  554  1  0.18646800  0.95638200  0.24494050  1
  H  555  1  0.17685350  0.88945700  0.20693350  1
  H  556  1  0.25449700  0.79836700  0.22812900  1
  H  557  1  0.24312450  0.69286800  0.22864850  1
  H  558  1  0.25480100  0.95454700  0.29498850  1
  H  560  1  0.35187100  0.90576500  0.18818600  1
  H  561  1  0.52013150  0.95676300  0.31322300  1
  H  562  1  0.58823500  0.88170600  0.31765650  1
  H  563  1  0.36134750  0.97405200  0.22599600  1
  H  565  1  0.89967800  0.91693000  0.33106400  1
  H  809  1  0.02872200  0.16212300  0.35806150  1
  H  824  1  0.22390600  0.14348200  0.46956750  1
  H  825  1  0.27057850  0.01660900  0.41043650  1
  H  832  1  0.04943950  0.22230200  0.41298200  1
  H  833  1  0.16734950  0.26333700  0.47827100  1
  H  840  1  0.15916950  0.05030600  0.38365350  1
  H  841  1  0.32950600  0.21910200  0.48150450  1
  H  842  1  0.02509500  0.33051700  0.37777600  1
  H  853  1  0.51198500  0.29138600  0.45038150  1
  H  854  1  0.44285000  0.26709700  0.41540500  1
  H  861  1  0.34335750  0.04305200  0.35632300  1
  H  862  1  0.47076550  0.16032700  0.37921000  1
  H  863  1  0.54155250  0.09346500  0.36771600  1
  H  864  1  0.47619650  0.33253400  0.36179050  1
  H  865  1  0.95931450  0.09269900  0.36867450  1
  H  866  1  0.98019700  0.19948200  0.44841550  1
  H  925  1  0.08808800  0.51204600  0.34289600  1
  H  926  1  0.15681050  0.44236500  0.35405150  1
  H  937  1  0.18435350  0.52684200  0.49344300  1
  H  938  1  0.27498800  0.33544400  0.46592000  1
  H  939  1  0.23044350  0.46526700  0.40810400  1
  H  940  1  0.25267650  0.53298800  0.44343100  1
  H  948  1  0.53938350  0.50020200  0.33782800  1
  H  963  1  0.59139950  0.61220000  0.42085600  1
  H  964  1  0.52444750  0.53635500  0.42624800  1
  H  965  1  0.41600100  0.51575100  0.39562200  1
  H  966  1  0.34622050  0.44675600  0.38506150  1
  H  967  1  0.54535350  0.40190500  0.37202500  1
  H  979  1  0.89771450  0.57596900  0.40512450  1
  H  980  1  0.96256700  0.49899500  0.40034650  1
  H  981  1  0.80506750  0.53506100  0.36513000  1
  H  982  1  0.69850650  0.53536200  0.37129000  1
  H  983  1  0.95635550  0.40044900  0.36688850  1
  H  1043  1  0.31297750  0.94616600  0.49501100  1
  H  1044  1  0.24796550  0.94644100  0.44480050  1
  H  1045  1  0.08960200  0.98036300  0.39446250  1
  H  1059  1  0.53544400  0.80121500  0.36723200  1
  H  1060  1  0.53521100  0.69456500  0.37218900  1
  H  1061  1  0.60884300  0.91984100  0.40552450  1
  H  1062  1  0.41474200  0.97579400  0.34460050  1
  H  1063  1  0.54207250  0.99523100  0.40101500  1
  H  1064  1  0.96523750  0.99332300  0.33585450  1
  H  1081  1  0.91418900  0.88333800  0.41972000  1
  H  1082  1  0.80661350  0.95902500  0.37025400  1
  H  1083  1  0.69988150  0.95928000  0.36477400  1
  H  1084  1  0.75258350  0.79580700  0.36896750  1
  H  1085  1  0.75234750  0.69859400  0.36858950  1
  H  1086  1  0.96984600  0.79981200  0.37068350  1
  H  1087  1  0.96947200  0.69313100  0.36576500  1
  H  1089  1  0.98103650  0.95942900  0.42446950  1
  H  1465  1  0.20102800  0.07310500  0.50389400  1
  H  1466  1  0.09837750  0.24108000  0.51339250  1
  H  1467  1  0.99898500  0.30844700  0.51273550  1
  H  1468  1  0.39876000  0.24312700  0.51607900  1
  H  1481  1  0.53495000  0.23595700  0.64680900  1
  H  1482  1  0.53451400  0.24873300  0.59312100  1
  H  1483  1  0.57683800  0.17054100  0.54632750  1
  H  1484  1  0.49927900  0.17888200  0.51341050  1
  H  1485  1  0.96053050  0.13604700  0.50189200  1
  H  1504  1  0.96374550  0.24728400  0.64603050  1
  H  1505  1  0.96332450  0.23797500  0.59216000  1
  H  1506  1  0.79831400  0.24276500  0.61942150  1
  H  1507  1  0.69995900  0.24242100  0.61962750  1
  H  1508  1  0.80215500  0.24109700  0.50988450  1
  H  1509  1  0.69425600  0.25019000  0.51017950  1
  H  1510  1  0.92239300  0.31712300  0.54641400  1
  H  1511  1  0.88465100  0.14455200  0.53626350  1
  H  1559  1  0.29756650  0.40387100  0.50117850  1
  H  1571  1  0.24172400  0.52097700  0.64662200  1
  H  1572  1  0.25199000  0.52158100  0.59228100  1
  H  1573  1  0.17380150  0.59166900  0.53232000  1
  H  1574  1  0.53239300  0.35273700  0.50456000  1
  H  1575  1  0.60968400  0.34449300  0.53816700  1
  H  1576  1  0.34915450  0.57721000  0.55069550  1
  H  1577  1  0.35960600  0.51104900  0.51197250  1
  H  1614  1  0.24490350  0.73574200  0.64473500  1
  H  1615  1  0.24626550  0.73631000  0.59513300  1
  H  1616  1  0.25073400  0.95044200  0.64762050  1
  H  1617  1  0.24174650  0.95102400  0.59323450  1
  H  1618  1  0.32036950  0.87934500  0.53317150  1
  H  1619  1  0.14547900  0.89977000  0.55113200  1
  H  1620  1  0.24009650  0.78970900  0.51194600  1
  H  1621  1  0.25160300  0.68421300  0.51173450  1
  H  1622  1  0.13823200  0.96791000  0.51314300  1
  H  1841  1  0.22896050  0.01197700  0.83092900  1
  H  1842  1  0.27186700  0.13982100  0.77164450  1
  H  1843  1  0.29441200  0.07017400  0.73703150  1
  H  1844  1  0.22234500  0.32999500  0.77057650  1
  H  1851  1  0.16795500  0.21501900  0.75996350  1
  H  1852  1  0.09986800  0.23942700  0.72481650  1
  H  1853  1  0.05088200  0.25873000  0.82514950  1
  H  1854  1  0.99981600  0.17454000  0.72504400  1
  H  1855  1  0.32988900  0.25700800  0.75822200  1
  H  1870  1  0.57691000  0.31262400  0.69400650  1
  H  1871  1  0.49965800  0.30220400  0.72697750  1
  H  1872  1  0.61211400  0.13887900  0.70067350  1
  H  1873  1  0.53518550  0.12855600  0.73433350  1
  H  1874  1  0.51400600  0.18852400  0.78915750  1
  H  1875  1  0.44408500  0.21029200  0.82416800  1
  H  1876  1  0.39995800  0.23572900  0.72360500  1
  H  1888  1  0.92271450  0.16717400  0.69160200  1
  H  1889  1  0.80395900  0.24313900  0.72894150  1
  H  1890  1  0.69608050  0.23369700  0.72907450  1
  H  1891  1  0.98253050  0.28364600  0.78970450  1
  H  1965  1  0.31894300  0.59228500  0.70682200  1
  H  1966  1  0.31081550  0.52581100  0.74509850  1
  H  1967  1  0.19908600  0.40000800  0.73619500  1
  H  1968  1  0.26785000  0.45732600  0.82967550  1
  H  1969  1  0.24487350  0.52661700  0.79520500  1
  H  1970  1  0.13608950  0.50492800  0.72663250  1
  H  1971  1  0.14408150  0.57273100  0.68851100  1
  H  1972  1  0.59901700  0.56184400  0.83199500  1
  H  1973  1  0.96330650  0.34714100  0.73672800  1
  H  1974  1  0.88684900  0.33993600  0.70260050  1
  H  1975  1  0.90960150  0.59693300  0.81606300  1
  H  1976  1  0.97785700  0.52206600  0.81130150  1
  H  2016  1  0.18263950  0.94531200  0.74636400  1
  H  2017  1  0.17252000  0.87949600  0.70788550  1
  H  2018  1  0.25019800  0.78772800  0.72815700  1
  H  2019  1  0.23882650  0.68222700  0.72789750  1
  H  2020  1  0.25116550  0.94239800  0.79622250  1
  H  2023  1  0.34735550  0.89615600  0.68877800  1
  H  2024  1  0.35733550  0.96333000  0.72706200  1
  H  2025  1  0.51795100  0.94521400  0.81321550  1
  H  2026  1  0.58396500  0.86833500  0.81757700  1
  H  2028  1  0.89401400  0.90180400  0.83061400  1
  H  2273  1  0.02263850  0.14748800  0.85869000  1
  H  2287  1  0.22673150  0.14619400  0.96733150  1
  H  2288  1  0.26662450  0.01704200  0.90821850  1
  H  2295  1  0.05559100  0.21668400  0.91453200  1
  H  2296  1  0.17064750  0.26280900  0.98025650  1
  H  2302  1  0.15300400  0.03548700  0.88417000  1
  H  2303  1  0.02988650  0.31972300  0.87725000  1
  H  2315  1  0.51738550  0.28754400  0.94866200  1
  H  2316  1  0.44974700  0.26090500  0.91339650  1
  H  2317  1  0.33282300  0.21911300  0.97897300  1
  H  2324  1  0.47008100  0.31825600  0.85985450  1
  H  2325  1  0.34345650  0.03895500  0.85486600  1
  H  2326  1  0.47571250  0.14964500  0.87922950  1
  H  2327  1  0.54346000  0.07927700  0.86849650  1
  H  2328  1  0.95328300  0.07754700  0.86859500  1
  H  2329  1  0.98502000  0.19613700  0.94964450  1
  H  2390  1  0.08492200  0.50413800  0.84295400  1
  H  2391  1  0.15663200  0.43811200  0.85492150  1
  H  2394  1  0.27766400  0.33826400  0.96759650  1
  H  2403  1  0.18222200  0.53049500  0.99544650  1
  H  2404  1  0.22587600  0.46553200  0.90983250  1
  H  2405  1  0.24652400  0.53455500  0.94478000  1
  H  2412  1  0.53310700  0.48584200  0.83714350  1
  H  2427  1  0.58578750  0.59619800  0.92063100  1
  H  2428  1  0.51854200  0.52050400  0.92573600  1
  H  2429  1  0.40979200  0.50043400  0.89503400  1
  H  2430  1  0.33998000  0.43173000  0.88390300  1
  H  2431  1  0.53920250  0.38714800  0.87082150  1
  H  2443  1  0.89148650  0.55933800  0.90413350  1
  H  2444  1  0.95836100  0.48411300  0.89929700  1
  H  2445  1  0.79922100  0.51962000  0.86431900  1
  H  2446  1  0.69269600  0.51997200  0.87073150  1
  H  2447  1  0.95812000  0.38607400  0.86555900  1
  H  2508  1  0.31106950  0.94977200  0.99254000  1
  H  2509  1  0.24235950  0.94818700  0.94294650  1
  H  2511  1  0.08352750  0.96516600  0.89438750  1
  H  2523  1  0.52981650  0.78596100  0.86723100  1
  H  2524  1  0.52953950  0.67928200  0.87215550  1
  H  2525  1  0.60289250  0.90337000  0.90587650  1
  H  2526  1  0.41184300  0.96811000  0.84391550  1
  H  2527  1  0.53817100  0.98053100  0.90145800  1
  H  2528  1  0.95932200  0.97838400  0.83558900  1
  H  2545  1  0.90856200  0.86751700  0.91920100  1
  H  2546  1  0.80107900  0.94356400  0.87003550  1
  H  2547  1  0.69430700  0.94390600  0.86484900  1
  H  2548  1  0.74697850  0.78036400  0.86845000  1
  H  2549  1  0.74670500  0.68315500  0.86845000  1
  H  2550  1  0.96422150  0.78426700  0.87004700  1
  H  2551  1  0.96377750  0.67761300  0.86512800  1
  H  2553  1  0.97514800  0.94376600  0.92412900  1
  N  19  1  0.66120750  0.25424000  0.12009400  1
  N  24  1  0.84118250  0.25484200  0.11950950  1
  N  26  1  0.75189850  0.25556000  0.16659100  1
  N  28  1  0.75050950  0.25297400  0.07302150  1
  N  97  1  0.24859250  0.65169200  0.12072150  1
  N  133  1  0.24975300  0.74431600  0.16567750  1
  N  135  1  0.24851300  0.83512400  0.11988600  1
  N  141  1  0.24747050  0.74248900  0.07493350  1
  N  369  1  0.30737700  0.31331000  0.30829950  1
  N  371  1  0.19761250  0.18197200  0.30547900  1
  N  811  1  0.12433000  0.19131700  0.33802200  1
  N  812  1  0.18733700  0.11752700  0.34206300  1
  N  813  1  0.11968900  0.30129300  0.39887550  1
  N  815  1  0.19393850  0.30835100  0.43095950  1
  N  816  1  0.30324400  0.17399900  0.43419200  1
  N  818  1  0.31353500  0.11054800  0.39718850  1
  N  843  1  0.38142150  0.30480600  0.34033850  1
  N  845  1  0.37587000  0.18491800  0.40147100  1
  N  927  1  0.31710650  0.37726300  0.34504100  1
  N  930  1  0.18502650  0.37302100  0.39439150  1
  N  970  1  0.75220300  0.65823700  0.36844700  1
  N  1049  1  0.65970350  0.74745600  0.36872800  1
  N  1068  1  0.75275600  0.83615100  0.36845350  1
  N  1072  1  0.84527200  0.74692000  0.36812000  1
  N  1470  1  0.65914300  0.24249100  0.61971650  1
  N  1489  1  0.83913100  0.24286200  0.61933350  1
  N  1491  1  0.74949850  0.24096600  0.66630750  1
  N  1493  1  0.74875450  0.24415200  0.57274250  1
  N  1562  1  0.24541600  0.64428100  0.61973550  1
  N  1597  1  0.24468900  0.73555300  0.66531200  1
  N  1599  1  0.24530200  0.82772400  0.62012700  1
  N  1605  1  0.24586050  0.73647000  0.57455600  1
  N  1833  1  0.30247200  0.30043300  0.80577950  1
  N  1835  1  0.19307300  0.16921600  0.80726550  1
  N  2275  1  0.11853350  0.17732300  0.83915650  1
  N  2276  1  0.18213900  0.10410700  0.84347850  1
  N  2277  1  0.12443100  0.29636100  0.90008300  1
  N  2279  1  0.19680450  0.30765000  0.93290200  1
  N  2280  1  0.30645900  0.17326500  0.93176350  1
  N  2282  1  0.31557100  0.10818900  0.89543100  1
  N  2305  1  0.37538450  0.29074400  0.83839100  1
  N  2307  1  0.38087550  0.18003200  0.89975150  1
  N  2395  1  0.31174450  0.36385600  0.84280750  1
  N  2396  1  0.18678700  0.37062400  0.89562700  1
  N  2434  1  0.74652000  0.64280100  0.86815650  1
  N  2513  1  0.65404700  0.73210800  0.86863600  1
  N  2532  1  0.74716450  0.82071400  0.86805800  1
  N  2536  1  0.83960750  0.73144300  0.86751300  1
