# generated using pymatgen
data_ZnH18C18(NO)4
_symmetry_space_group_name_H-M   'P 1'
_cell_length_a   16.62494000
_cell_length_b   17.51831000
_cell_length_c   17.87008000
_cell_angle_alpha   90.00627000
_cell_angle_beta   90.00000000
_cell_angle_gamma   90.00000000
_symmetry_Int_Tables_number   1
_chemical_formula_structural   ZnH18C18(NO)4
_chemical_formula_sum   'Zn8 H144 C144 N32 O32'
_cell_volume   5204.49730499
_cell_formula_units_Z   8
loop_
 _symmetry_equiv_pos_site_id
 _symmetry_equiv_pos_as_xyz
  1  'x, y, z'
loop_
 _atom_site_type_symbol
 _atom_site_label
 _atom_site_symmetry_multiplicity
 _atom_site_fract_x
 _atom_site_fract_y
 _atom_site_fract_z
 _atom_site_occupancy
  Zn  Zn1  1  0.27483000  0.89577000  0.61870000  1.0
  Zn  Zn2  1  0.77483000  0.60422000  0.38130000  1.0
  Zn  Zn3  1  0.77483000  0.39582000  0.88126000  1.0
  Zn  Zn4  1  0.27483000  0.10418000  0.11874000  1.0
  Zn  Zn5  1  0.22517000  0.60418000  0.11874000  1.0
  Zn  Zn6  1  0.72517000  0.89582000  0.88126000  1.0
  Zn  Zn7  1  0.72517000  0.10423000  0.38130000  1.0
  Zn  Zn8  1  0.22517000  0.39577000  0.61870000  1.0
  H  H1  1  0.27559000  0.08120000  0.59057000  1.0
  H  H2  1  0.14288000  0.02226000  0.18383000  1.0
  H  H3  1  0.21813000  0.84885000  0.44826000  1.0
  H  H4  1  0.32418000  0.84931000  0.45877000  1.0
  H  H5  1  0.27975000  0.88037000  0.37276000  1.0
  H  H6  1  0.25031000  0.20054000  0.51752000  1.0
  H  H7  1  0.20077000  0.18535000  0.43032000  1.0
  H  H8  1  0.30711000  0.19553000  0.43327000  1.0
  H  H9  1  0.09210000  0.90937000  0.30655000  1.0
  H  H10  1  0.04564000  0.99916000  0.32440000  1.0
  H  H11  1  0.10758000  0.95677000  0.39330000  1.0
  H  H12  1  0.41232000  0.08699000  0.24816000  1.0
  H  H13  1  0.39810000  0.08831000  0.34722000  1.0
  H  H14  1  0.36520000  0.16619000  0.29106000  1.0
  H  H15  1  0.09579000  0.73793000  0.55081000  1.0
  H  H16  1  0.99253000  0.67014000  0.47178000  1.0
  H  H17  1  0.88568000  0.88552000  0.41634000  1.0
  H  H18  1  0.98171000  0.95173000  0.50036000  1.0
  H  H19  1  0.77559000  0.41880000  0.40943000  1.0
  H  H20  1  0.64289000  0.47773000  0.81616000  1.0
  H  H21  1  0.71813000  0.65114000  0.55173000  1.0
  H  H22  1  0.82418000  0.65068000  0.54122000  1.0
  H  H23  1  0.77976000  0.61963000  0.62724000  1.0
  H  H24  1  0.75031000  0.29946000  0.48248000  1.0
  H  H25  1  0.70077000  0.31465000  0.56968000  1.0
  H  H26  1  0.80711000  0.30447000  0.56672000  1.0
  H  H27  1  0.59210000  0.59063000  0.69345000  1.0
  H  H28  1  0.54564000  0.50084000  0.67560000  1.0
  H  H29  1  0.60758000  0.54322000  0.60669000  1.0
  H  H30  1  0.91232000  0.41301000  0.75184000  1.0
  H  H31  1  0.89810000  0.41169000  0.65278000  1.0
  H  H32  1  0.86520000  0.33381000  0.70893000  1.0
  H  H33  1  0.59580000  0.76207000  0.44918000  1.0
  H  H34  1  0.49253000  0.82985000  0.52822000  1.0
  H  H35  1  0.38567000  0.61447000  0.58366000  1.0
  H  H36  1  0.48171000  0.54826000  0.49964000  1.0
  H  H37  1  0.77561000  0.58120000  0.90943000  1.0
  H  H38  1  0.64298000  0.52211000  0.31618000  1.0
  H  H39  1  0.71814000  0.34886000  0.05169000  1.0
  H  H40  1  0.82419000  0.34931000  0.04120000  1.0
  H  H41  1  0.77977000  0.38042000  0.12721000  1.0
  H  H42  1  0.75030000  0.70050000  0.98248000  1.0
  H  H43  1  0.70076000  0.68533000  0.06969000  1.0
  H  H44  1  0.80710000  0.69556000  0.06673000  1.0
  H  H45  1  0.59215000  0.40937000  0.19342000  1.0
  H  H46  1  0.54565000  0.49915000  0.17559000  1.0
  H  H47  1  0.60761000  0.45678000  0.10668000  1.0
  H  H48  1  0.91236000  0.58701000  0.25183000  1.0
  H  H49  1  0.89811000  0.58831000  0.15277000  1.0
  H  H50  1  0.86521000  0.66618000  0.20895000  1.0
  H  H51  1  0.59580000  0.23797000  0.94927000  1.0
  H  H52  1  0.49257000  0.17016000  0.02826000  1.0
  H  H53  1  0.38567000  0.38549000  0.08374000  1.0
  H  H54  1  0.48173000  0.45176000  0.99981000  1.0
  H  H55  1  0.27561000  0.91880000  0.09057000  1.0
  H  H56  1  0.14298000  0.97789000  0.68382000  1.0
  H  H57  1  0.21814000  0.15114000  0.94831000  1.0
  H  H58  1  0.32419000  0.15069000  0.95880000  1.0
  H  H59  1  0.27977000  0.11958000  0.87279000  1.0
  H  H60  1  0.25030000  0.79949000  0.01752000  1.0
  H  H61  1  0.20075000  0.81467000  0.93031000  1.0
  H  H62  1  0.30710000  0.80443000  0.93326000  1.0
  H  H63  1  0.09215000  0.09063000  0.80658000  1.0
  H  H64  1  0.04565000  0.00084000  0.82441000  1.0
  H  H65  1  0.10761000  0.04322000  0.89332000  1.0
  H  H66  1  0.41236000  0.91299000  0.74817000  1.0
  H  H67  1  0.39811000  0.91168000  0.84723000  1.0
  H  H68  1  0.36521000  0.83381000  0.79105000  1.0
  H  H69  1  0.09580000  0.26203000  0.05073000  1.0
  H  H70  1  0.99257000  0.32983000  0.97174000  1.0
  H  H71  1  0.88567000  0.11451000  0.91626000  1.0
  H  H72  1  0.98173000  0.04824000  0.00018000  1.0
  H  H73  1  0.22439000  0.41880000  0.09057000  1.0
  H  H74  1  0.35702000  0.47789000  0.68382000  1.0
  H  H75  1  0.28186000  0.65114000  0.94831000  1.0
  H  H76  1  0.17582000  0.65069000  0.95880000  1.0
  H  H77  1  0.22023000  0.61958000  0.87279000  1.0
  H  H78  1  0.24970000  0.29949000  0.01752000  1.0
  H  H79  1  0.29925000  0.31467000  0.93031000  1.0
  H  H80  1  0.19290000  0.30443000  0.93326000  1.0
  H  H81  1  0.40785000  0.59063000  0.80658000  1.0
  H  H82  1  0.45435000  0.50084000  0.82441000  1.0
  H  H83  1  0.39239000  0.54322000  0.89332000  1.0
  H  H84  1  0.08764000  0.41299000  0.74817000  1.0
  H  H85  1  0.10190000  0.41168000  0.84723000  1.0
  H  H86  1  0.13479000  0.33381000  0.79105000  1.0
  H  H87  1  0.40420000  0.76203000  0.05073000  1.0
  H  H88  1  0.50743000  0.82983000  0.97174000  1.0
  H  H89  1  0.61433000  0.61451000  0.91626000  1.0
  H  H90  1  0.51827000  0.54824000  0.00018000  1.0
  H  H91  1  0.72440000  0.08120000  0.90943000  1.0
  H  H92  1  0.85702000  0.02211000  0.31618000  1.0
  H  H93  1  0.78186000  0.84886000  0.05169000  1.0
  H  H94  1  0.67582000  0.84931000  0.04120000  1.0
  H  H95  1  0.72024000  0.88042000  0.12721000  1.0
  H  H96  1  0.74971000  0.20050000  0.98248000  1.0
  H  H97  1  0.79925000  0.18533000  0.06969000  1.0
  H  H98  1  0.69291000  0.19557000  0.06673000  1.0
  H  H99  1  0.90785000  0.90937000  0.19342000  1.0
  H  H100  1  0.95435000  0.99915000  0.17559000  1.0
  H  H101  1  0.89239000  0.95678000  0.10668000  1.0
  H  H102  1  0.58764000  0.08701000  0.25183000  1.0
  H  H103  1  0.60190000  0.08832000  0.15277000  1.0
  H  H104  1  0.63479000  0.16619000  0.20895000  1.0
  H  H105  1  0.90420000  0.73797000  0.94927000  1.0
  H  H106  1  0.00743000  0.67016000  0.02826000  1.0
  H  H107  1  0.11433000  0.88549000  0.08374000  1.0
  H  H108  1  0.01827000  0.95176000  0.99981000  1.0
  H  H109  1  0.72441000  0.91880000  0.40943000  1.0
  H  H110  1  0.85712000  0.97773000  0.81616000  1.0
  H  H111  1  0.78187000  0.15114000  0.55173000  1.0
  H  H112  1  0.67582000  0.15069000  0.54122000  1.0
  H  H113  1  0.72025000  0.11963000  0.62724000  1.0
  H  H114  1  0.74969000  0.79946000  0.48248000  1.0
  H  H115  1  0.79924000  0.81465000  0.56968000  1.0
  H  H116  1  0.69289000  0.80447000  0.56672000  1.0
  H  H117  1  0.90790000  0.09063000  0.69345000  1.0
  H  H118  1  0.95436000  0.00084000  0.67560000  1.0
  H  H119  1  0.89242000  0.04322000  0.60669000  1.0
  H  H120  1  0.58768000  0.91301000  0.75184000  1.0
  H  H121  1  0.60190000  0.91169000  0.65278000  1.0
  H  H122  1  0.63480000  0.83381000  0.70893000  1.0
  H  H123  1  0.90421000  0.26207000  0.44919000  1.0
  H  H124  1  0.00747000  0.32986000  0.52822000  1.0
  H  H125  1  0.11433000  0.11447000  0.58366000  1.0
  H  H126  1  0.01829000  0.04826000  0.49964000  1.0
  H  H127  1  0.22441000  0.58120000  0.59057000  1.0
  H  H128  1  0.35712000  0.52226000  0.18383000  1.0
  H  H129  1  0.28187000  0.34885000  0.44826000  1.0
  H  H130  1  0.17582000  0.34931000  0.45877000  1.0
  H  H131  1  0.22025000  0.38037000  0.37276000  1.0
  H  H132  1  0.24969000  0.70054000  0.51752000  1.0
  H  H133  1  0.29924000  0.68535000  0.43032000  1.0
  H  H134  1  0.19289000  0.69553000  0.43327000  1.0
  H  H135  1  0.40790000  0.40937000  0.30655000  1.0
  H  H136  1  0.45436000  0.49916000  0.32440000  1.0
  H  H137  1  0.39242000  0.45678000  0.39330000  1.0
  H  H138  1  0.08768000  0.58698000  0.24816000  1.0
  H  H139  1  0.10190000  0.58831000  0.34722000  1.0
  H  H140  1  0.13480000  0.66618000  0.29106000  1.0
  H  H141  1  0.40421000  0.23793000  0.55081000  1.0
  H  H142  1  0.50747000  0.17014000  0.47178000  1.0
  H  H143  1  0.61433000  0.38552000  0.41634000  1.0
  H  H144  1  0.51830000  0.45174000  0.50036000  1.0
  C  C1  1  0.27329000  0.88013000  0.43383000  1.0
  C  C2  1  0.27035000  0.96014000  0.46224000  1.0
  C  C3  1  0.25805000  0.02781000  0.42061000  1.0
  C  C4  1  0.26219000  0.08781000  0.47235000  1.0
  C  C5  1  0.25485000  0.17189000  0.46305000  1.0
  C  C6  1  0.10073000  0.96549000  0.33289000  1.0
  C  C7  1  0.17310000  0.00525000  0.30295000  1.0
  C  C8  1  0.24169000  0.03274000  0.34043000  1.0
  C  C9  1  0.29113000  0.06570000  0.28485000  1.0
  C  C10  1  0.37104000  0.10365000  0.29328000  1.0
  C  C11  1  0.10785000  0.88817000  0.57761000  1.0
  C  C12  1  0.04553000  0.84896000  0.53063000  1.0
  C  C13  1  0.04891000  0.76931000  0.52170000  1.0
  C  C14  1  0.99242000  0.73192000  0.47754000  1.0
  C  C15  1  0.93097000  0.85329000  0.44674000  1.0
  C  C16  1  0.98547000  0.89035000  0.49346000  1.0
  C  C17  1  0.86926000  0.73344000  0.39523000  1.0
  C  C18  1  0.93317000  0.77376000  0.43935000  1.0
  C  C19  1  0.77330000  0.61986000  0.56617000  1.0
  C  C20  1  0.77035000  0.53986000  0.53775000  1.0
  C  C21  1  0.75805000  0.47218000  0.57939000  1.0
  C  C22  1  0.76219000  0.41218000  0.52765000  1.0
  C  C23  1  0.75485000  0.32810000  0.53695000  1.0
  C  C24  1  0.60073000  0.53450000  0.66711000  1.0
  C  C25  1  0.67310000  0.49474000  0.69705000  1.0
  C  C26  1  0.74169000  0.46726000  0.65957000  1.0
  C  C27  1  0.79114000  0.43430000  0.71515000  1.0
  C  C28  1  0.87104000  0.39635000  0.70672000  1.0
  C  C29  1  0.60785000  0.61182000  0.42239000  1.0
  C  C30  1  0.54553000  0.65104000  0.46937000  1.0
  C  C31  1  0.54891000  0.73068000  0.47829000  1.0
  C  C32  1  0.49242000  0.76808000  0.52246000  1.0
  C  C33  1  0.43097000  0.64670000  0.55326000  1.0
  C  C34  1  0.48547000  0.60965000  0.50653000  1.0
  C  C35  1  0.36926000  0.76655000  0.60477000  1.0
  C  C36  1  0.43316000  0.72623000  0.56065000  1.0
  C  C37  1  0.77331000  0.38015000  0.06614000  1.0
  C  C38  1  0.77035000  0.46014000  0.03773000  1.0
  C  C39  1  0.75807000  0.52782000  0.07938000  1.0
  C  C40  1  0.76219000  0.58781000  0.02766000  1.0
  C  C41  1  0.75484000  0.67189000  0.03696000  1.0
  C  C42  1  0.60075000  0.46550000  0.16710000  1.0
  C  C43  1  0.67312000  0.50528000  0.19704000  1.0
  C  C44  1  0.74172000  0.53275000  0.15957000  1.0
  C  C45  1  0.79116000  0.56571000  0.21516000  1.0
  C  C46  1  0.87106000  0.60365000  0.20672000  1.0
  C  C47  1  0.60782000  0.38811000  0.92228000  1.0
  C  C48  1  0.54549000  0.34898000  0.96935000  1.0
  C  C49  1  0.54887000  0.26933000  0.97832000  1.0
  C  C50  1  0.49238000  0.23194000  0.02247000  1.0
  C  C51  1  0.43093000  0.35329000  0.05327000  1.0
  C  C52  1  0.48546000  0.39036000  0.00658000  1.0
  C  C53  1  0.36912000  0.23346000  0.10470000  1.0
  C  C54  1  0.43307000  0.27376000  0.06062000  1.0
  C  C55  1  0.27330000  0.11985000  0.93386000  1.0
  C  C56  1  0.27035000  0.03985000  0.96227000  1.0
  C  C57  1  0.25807000  0.97218000  0.92061000  1.0
  C  C58  1  0.26219000  0.91218000  0.97234000  1.0
  C  C59  1  0.25484000  0.82810000  0.96304000  1.0
  C  C60  1  0.10075000  0.03449000  0.83290000  1.0
  C  C61  1  0.17311000  0.99471000  0.80296000  1.0
  C  C62  1  0.24172000  0.96725000  0.84043000  1.0
  C  C63  1  0.29116000  0.93429000  0.78484000  1.0
  C  C64  1  0.37106000  0.89635000  0.79328000  1.0
  C  C65  1  0.10782000  0.11188000  0.07772000  1.0
  C  C66  1  0.04549000  0.15102000  0.03065000  1.0
  C  C67  1  0.04887000  0.23066000  0.02167000  1.0
  C  C68  1  0.99238000  0.26806000  0.97752000  1.0
  C  C69  1  0.93093000  0.14670000  0.94673000  1.0
  C  C70  1  0.98546000  0.10964000  0.99342000  1.0
  C  C71  1  0.86912000  0.26654000  0.89529000  1.0
  C  C72  1  0.93307000  0.22624000  0.93938000  1.0
  C  C73  1  0.22670000  0.61985000  0.93386000  1.0
  C  C74  1  0.22965000  0.53985000  0.96227000  1.0
  C  C75  1  0.24193000  0.47218000  0.92061000  1.0
  C  C76  1  0.23781000  0.41218000  0.97234000  1.0
  C  C77  1  0.24516000  0.32810000  0.96304000  1.0
  C  C78  1  0.39925000  0.53449000  0.83290000  1.0
  C  C79  1  0.32689000  0.49471000  0.80296000  1.0
  C  C80  1  0.25828000  0.46725000  0.84043000  1.0
  C  C81  1  0.20884000  0.43429000  0.78484000  1.0
  C  C82  1  0.12894000  0.39635000  0.79328000  1.0
  C  C83  1  0.39218000  0.61188000  0.07772000  1.0
  C  C84  1  0.45451000  0.65102000  0.03065000  1.0
  C  C85  1  0.45113000  0.73066000  0.02167000  1.0
  C  C86  1  0.50763000  0.76806000  0.97752000  1.0
  C  C87  1  0.56907000  0.64670000  0.94673000  1.0
  C  C88  1  0.51454000  0.60964000  0.99342000  1.0
  C  C89  1  0.63089000  0.76654000  0.89529000  1.0
  C  C90  1  0.56693000  0.72624000  0.93938000  1.0
  C  C91  1  0.72670000  0.88015000  0.06614000  1.0
  C  C92  1  0.72965000  0.96014000  0.03773000  1.0
  C  C93  1  0.74193000  0.02782000  0.07938000  1.0
  C  C94  1  0.73781000  0.08782000  0.02766000  1.0
  C  C95  1  0.74516000  0.17190000  0.03696000  1.0
  C  C96  1  0.89926000  0.96550000  0.16710000  1.0
  C  C97  1  0.82689000  0.00528000  0.19704000  1.0
  C  C98  1  0.75829000  0.03275000  0.15957000  1.0
  C  C99  1  0.70884000  0.06571000  0.21516000  1.0
  C  C100  1  0.62894000  0.10365000  0.20672000  1.0
  C  C101  1  0.89218000  0.88811000  0.92228000  1.0
  C  C102  1  0.95452000  0.84897000  0.96935000  1.0
  C  C103  1  0.95113000  0.76933000  0.97832000  1.0
  C  C104  1  0.00763000  0.73193000  0.02247000  1.0
  C  C105  1  0.06907000  0.85329000  0.05327000  1.0
  C  C106  1  0.01454000  0.89036000  0.00658000  1.0
  C  C107  1  0.13088000  0.73346000  0.10470000  1.0
  C  C108  1  0.06693000  0.77376000  0.06062000  1.0
  C  C109  1  0.72671000  0.11986000  0.56617000  1.0
  C  C110  1  0.72965000  0.03986000  0.53775000  1.0
  C  C111  1  0.74195000  0.97218000  0.57939000  1.0
  C  C112  1  0.73782000  0.91218000  0.52765000  1.0
  C  C113  1  0.74516000  0.82810000  0.53695000  1.0
  C  C114  1  0.89928000  0.03450000  0.66711000  1.0
  C  C115  1  0.82690000  0.99474000  0.69705000  1.0
  C  C116  1  0.75831000  0.96726000  0.65957000  1.0
  C  C117  1  0.70887000  0.93430000  0.71515000  1.0
  C  C118  1  0.62896000  0.89635000  0.70672000  1.0
  C  C119  1  0.89215000  0.11182000  0.42239000  1.0
  C  C120  1  0.95447000  0.15104000  0.46937000  1.0
  C  C121  1  0.95110000  0.23068000  0.47829000  1.0
  C  C122  1  0.00758000  0.26808000  0.52246000  1.0
  C  C123  1  0.06903000  0.14670000  0.55326000  1.0
  C  C124  1  0.01453000  0.10965000  0.50653000  1.0
  C  C125  1  0.13074000  0.26655000  0.60476000  1.0
  C  C126  1  0.06684000  0.22623000  0.56065000  1.0
  C  C127  1  0.22671000  0.38014000  0.43383000  1.0
  C  C128  1  0.22965000  0.46014000  0.46224000  1.0
  C  C129  1  0.24195000  0.52781000  0.42061000  1.0
  C  C130  1  0.23782000  0.58781000  0.47235000  1.0
  C  C131  1  0.24515000  0.67189000  0.46305000  1.0
  C  C132  1  0.39928000  0.46550000  0.33289000  1.0
  C  C133  1  0.32690000  0.50525000  0.30295000  1.0
  C  C134  1  0.25831000  0.53273000  0.34043000  1.0
  C  C135  1  0.20887000  0.56570000  0.28485000  1.0
  C  C136  1  0.12896000  0.60364000  0.29328000  1.0
  C  C137  1  0.39215000  0.38818000  0.57761000  1.0
  C  C138  1  0.45447000  0.34896000  0.53063000  1.0
  C  C139  1  0.45109000  0.26931000  0.52170000  1.0
  C  C140  1  0.50758000  0.23192000  0.47754000  1.0
  C  C141  1  0.56903000  0.35329000  0.44674000  1.0
  C  C142  1  0.51453000  0.39035000  0.49346000  1.0
  C  C143  1  0.63074000  0.23344000  0.39523000  1.0
  C  C144  1  0.56684000  0.27376000  0.43935000  1.0
  N  N1  1  0.28044000  0.97719000  0.53524000  1.0
  N  N2  1  0.27546000  0.05469000  0.53994000  1.0
  N  N3  1  0.25458000  0.05861000  0.21794000  1.0
  N  N4  1  0.18336000  0.02171000  0.22954000  1.0
  N  N5  1  0.78045000  0.52280000  0.46476000  1.0
  N  N6  1  0.77546000  0.44531000  0.46006000  1.0
  N  N7  1  0.75458000  0.44139000  0.78206000  1.0
  N  N8  1  0.68336000  0.47828000  0.77046000  1.0
  N  N9  1  0.78041000  0.47720000  0.96474000  1.0
  N  N10  1  0.77543000  0.55470000  0.96005000  1.0
  N  N11  1  0.75460000  0.55864000  0.28207000  1.0
  N  N12  1  0.68338000  0.52176000  0.27045000  1.0
  N  N13  1  0.28041000  0.02279000  0.03526000  1.0
  N  N14  1  0.27543000  0.94530000  0.03994000  1.0
  N  N15  1  0.25460000  0.94136000  0.71793000  1.0
  N  N16  1  0.18338000  0.97823000  0.72954000  1.0
  N  N17  1  0.21959000  0.52279000  0.03526000  1.0
  N  N18  1  0.22457000  0.44530000  0.03994000  1.0
  N  N19  1  0.24540000  0.44136000  0.71793000  1.0
  N  N20  1  0.31663000  0.47823000  0.72954000  1.0
  N  N21  1  0.71959000  0.97720000  0.96474000  1.0
  N  N22  1  0.72457000  0.05470000  0.96005000  1.0
  N  N23  1  0.74540000  0.05864000  0.28207000  1.0
  N  N24  1  0.81663000  0.02177000  0.27045000  1.0
  N  N25  1  0.71956000  0.02280000  0.46476000  1.0
  N  N26  1  0.72454000  0.94530000  0.46006000  1.0
  N  N27  1  0.74542000  0.94139000  0.78206000  1.0
  N  N28  1  0.81664000  0.97828000  0.77046000  1.0
  N  N29  1  0.21956000  0.47719000  0.53524000  1.0
  N  N30  1  0.22454000  0.55469000  0.53994000  1.0
  N  N31  1  0.24542000  0.55860000  0.21794000  1.0
  N  N32  1  0.31664000  0.52171000  0.22954000  1.0
  O  O1  1  0.17246000  0.84835000  0.58746000  1.0
  O  O2  1  0.09519000  0.95460000  0.60282000  1.0
  O  O3  1  0.87285000  0.65887000  0.40128000  1.0
  O  O4  1  0.81702000  0.76928000  0.35972000  1.0
  O  O5  1  0.67246000  0.65164000  0.41253000  1.0
  O  O6  1  0.59519000  0.54540000  0.39718000  1.0
  O  O7  1  0.37285000  0.84113000  0.59871000  1.0
  O  O8  1  0.31702000  0.73071000  0.64028000  1.0
  O  O9  1  0.67250000  0.34835000  0.91258000  1.0
  O  O10  1  0.59510000  0.45444000  0.89686000  1.0
  O  O11  1  0.37281000  0.15887000  0.09873000  1.0
  O  O12  1  0.31686000  0.26927000  0.14021000  1.0
  O  O13  1  0.17250000  0.15165000  0.08742000  1.0
  O  O14  1  0.09510000  0.04556000  0.10314000  1.0
  O  O15  1  0.87281000  0.34112000  0.90127000  1.0
  O  O16  1  0.81686000  0.23072000  0.85978000  1.0
  O  O17  1  0.32751000  0.65165000  0.08742000  1.0
  O  O18  1  0.40490000  0.54556000  0.10314000  1.0
  O  O19  1  0.62719000  0.84112000  0.90127000  1.0
  O  O20  1  0.68314000  0.73072000  0.85978000  1.0
  O  O21  1  0.82751000  0.84834000  0.91258000  1.0
  O  O22  1  0.90490000  0.95444000  0.89686000  1.0
  O  O23  1  0.12719000  0.65887000  0.09873000  1.0
  O  O24  1  0.18314000  0.76927000  0.14021000  1.0
  O  O25  1  0.82754000  0.15164000  0.41253000  1.0
  O  O26  1  0.90481000  0.04540000  0.39718000  1.0
  O  O27  1  0.12715000  0.34113000  0.59871000  1.0
  O  O28  1  0.18299000  0.23072000  0.64028000  1.0
  O  O29  1  0.32754000  0.34835000  0.58746000  1.0
  O  O30  1  0.40481000  0.45460000  0.60282000  1.0
  O  O31  1  0.62715000  0.15887000  0.40128000  1.0
  O  O32  1  0.68299000  0.26928000  0.35972000  1.0
