# generated using pymatgen
data_LiCdH16(C14O5)2
_symmetry_space_group_name_H-M   'P 1'
_cell_length_a   4.49132000
_cell_length_b   17.59481311
_cell_length_c   18.34530850
_cell_angle_alpha   87.96620949
_cell_angle_beta   85.65668452
_cell_angle_gamma   83.81548291
_symmetry_Int_Tables_number   1
_chemical_formula_structural   LiCdH16(C14O5)2
_chemical_formula_sum   'Li2 Cd2 H32 C56 O20'
_cell_volume   1436.59589702
_cell_formula_units_Z   2
loop_
 _symmetry_equiv_pos_site_id
 _symmetry_equiv_pos_as_xyz
  1  'x, y, z'
loop_
 _atom_site_type_symbol
 _atom_site_label
 _atom_site_symmetry_multiplicity
 _atom_site_fract_x
 _atom_site_fract_y
 _atom_site_fract_z
 _atom_site_occupancy
  Li  Li0  1  0.31074000  0.49692000  0.57803000  1
  Li  Li1  1  0.98655000  0.91109000  0.07311000  1
  Cd  Cd2  1  0.80238000  0.49893000  0.46826000  1
  Cd  Cd3  1  0.52563000  0.01452000  0.98693000  1
  H  H4  1  0.65190000  0.79461000  0.55563000  1
  H  H5  1  0.38860000  0.92001000  0.51087000  1
  H  H6  1  0.79600000  0.79736000  0.39780000  1
  H  H7  1  0.07033000  0.67255000  0.44044000  1
  H  H8  1  0.92658000  0.21945000  0.45109000  1
  H  H9  1  0.79275000  0.08728000  0.48951000  1
  H  H10  1  0.98588000  0.18707000  0.60575000  1
  H  H11  1  0.12269000  0.31832000  0.56574000  1
  H  H12  1  0.84216000  0.56049000  0.19517000  1
  H  H13  1  0.09037000  0.51994000  0.07197000  1
  H  H14  1  0.82324000  0.39769000  0.17866000  1
  H  H15  1  0.56985000  0.43790000  0.30108000  1
  H  H16  1  0.52270000  0.44979000  0.79378000  1
  H  H17  1  0.68373000  0.48972000  0.91389000  1
  H  H18  1  0.35119000  0.61564000  0.79922000  1
  H  H19  1  0.17649000  0.57924000  0.68000000  1
  H  H20  1  0.59570000  0.94127000  0.70143000  1
  H  H21  1  0.82937000  0.98398000  0.57860000  1
  H  H22  1  0.43660000  0.10551000  0.68789000  1
  H  H23  1  0.19787000  0.06334000  0.81003000  1
  H  H24  1  0.23099000  0.04658000  0.28833000  1
  H  H25  1  0.39665000  0.00644000  0.41345000  1
  H  H26  1  0.19720000  0.88468000  0.31435000  1
  H  H27  1  0.04214000  0.93059000  0.19167000  1
  H  H28  1  0.40759000  0.29752000  0.94643000  1
  H  H29  1  0.13948000  0.42625000  0.98261000  1
  H  H30  1  0.44576000  0.31366000  0.10242000  1
  H  H31  1  0.71944000  0.18538000  0.06637000  1
  H  H32  1  0.76858000  0.69395000  0.04474000  1
  H  H33  1  0.60641000  0.57171000  0.00095000  1
  H  H34  1  0.91221000  0.70101000  0.88618000  1
  H  H35  1  0.07751000  0.82314000  0.93072000  1
  C  C36  1  0.54264000  0.65311000  0.52110000  1
  C  C37  1  0.37703000  0.72667000  0.49852000  1
  C  C38  1  0.48031000  0.79621000  0.51697000  1
  C  C39  1  0.31858000  0.86549000  0.49673000  1
  C  C40  1  0.07031000  0.86456000  0.45662000  1
  C  C41  1  0.96429000  0.79614000  0.43720000  1
  C  C42  1  0.12856000  0.72704000  0.45763000  1
  C  C43  1  0.60629000  0.35543000  0.49307000  1
  C  C44  1  0.53838000  0.27614000  0.51148000  1
  C  C45  1  0.73416000  0.21152000  0.48888000  1
  C  C46  1  0.64534000  0.13824000  0.50505000  1
  C  C47  1  0.37672000  0.13063000  0.54525000  1
  C  C48  1  0.17833000  0.19445000  0.56798000  1
  C  C49  1  0.26831000  0.26695000  0.55119000  1
  C  C50  1  0.04704000  0.51405000  0.32856000  1
  C  C51  1  0.18857000  0.49679000  0.25467000  1
  C  C52  1  0.04363000  0.52055000  0.19077000  1
  C  C53  1  0.19507000  0.50361000  0.12250000  1
  C  C54  1  0.47412000  0.46181000  0.11949000  1
  C  C55  1  0.62312000  0.43797000  0.18261000  1
  C  C56  1  0.47001000  0.45506000  0.25021000  1
  C  C57  1  0.73630000  0.48743000  0.66044000  1
  C  C58  1  0.84172000  0.51229000  0.72970000  1
  C  C59  1  0.68822000  0.49000000  0.79591000  1
  C  C60  1  0.79389000  0.50770000  0.86242000  1
  C  C61  1  0.03678000  0.54978000  0.86265000  1
  C  C62  1  0.18909000  0.57448000  0.79759000  1
  C  C63  1  0.07934000  0.55662000  0.73117000  1
  C  C64  1  0.73605000  0.98387000  0.83496000  1
  C  C65  1  0.87881000  0.00361000  0.76210000  1
  C  C66  1  0.76269000  0.98166000  0.69740000  1
  C  C67  1  0.91002000  0.99994000  0.62973000  1
  C  C68  1  0.15468000  0.04161000  0.62780000  1
  C  C69  1  0.27289000  0.06442000  0.69163000  1
  C  C70  1  0.12485000  0.04566000  0.75883000  1
  C  C71  1  0.51659000  0.00905000  0.15744000  1
  C  C72  1  0.61505000  0.98473000  0.23163000  1
  C  C73  1  0.42961000  0.00686000  0.29488000  1
  C  C74  1  0.53575000  0.98976000  0.36429000  1
  C  C75  1  0.81155000  0.94805000  0.37051000  1
  C  C76  1  0.99908000  0.92464000  0.30854000  1
  C  C77  1  0.89256000  0.94367000  0.23974000  1
  C  C78  1  0.23453000  0.15856000  0.99134000  1
  C  C79  1  0.08069000  0.23495000  0.00827000  1
  C  C80  1  0.21119000  0.30206000  0.98482000  1
  C  C81  1  0.04811000  0.37313000  0.99961000  1
  C  C82  1  0.77300000  0.37566000  0.03922000  1
  C  C83  1  0.64033000  0.30939000  0.06361000  1
  C  C84  1  0.80437000  0.23886000  0.04837000  1
  C  C85  1  0.52318000  0.83664000  0.01581000  1
  C  C86  1  0.43365000  0.76524000  0.98807000  1
  C  C87  1  0.59795000  0.69481000  0.00587000  1
  C  C88  1  0.49397000  0.62694000  0.98550000  1
  C  C89  1  0.24544000  0.63023000  0.94495000  1
  C  C90  1  0.08176000  0.69986000  0.92530000  1
  C  C91  1  0.18679000  0.76752000  0.94637000  1
  O  O92  1  0.43125000  0.59055000  0.50567000  1
  O  O93  1  0.77872000  0.65517000  0.55330000  1
  O  O94  1  0.41613000  0.40999000  0.51660000  1
  O  O95  1  0.84833000  0.36693000  0.45534000  1
  O  O96  1  0.19871000  0.48903000  0.38277000  1
  O  O97  1  0.78627000  0.54981000  0.33727000  1
  O  O98  1  0.88941000  0.49962000  0.59920000  1
  O  O99  1  0.49665000  0.45495000  0.66564000  1
  O  O100  1  0.85740000  0.00723000  0.89078000  1
  O  O101  1  0.51024000  0.94687000  0.84005000  1
  O  O102  1  0.70678000  0.99144000  0.10193000  1
  O  O103  1  0.26273000  0.04520000  0.15302000  1
  O  O104  1  0.10296000  0.09973000  0.01324000  1
  O  O105  1  0.49174000  0.15210000  0.95636000  1
  O  O106  1  0.33861000  0.89825000  0.00719000  1
  O  O107  1  0.76394000  0.83307000  0.04755000  1
  O  O108  1  0.91129000  0.93498000  0.44038000  1
  O  O109  1  0.29749000  0.05682000  0.55960000  1
  O  O110  1  0.61691000  0.44739000  0.05056000  1
  O  O111  1  0.14127000  0.56084000  0.93065000  1
