# generated using pymatgen
data_H26C43N6
_symmetry_space_group_name_H-M   'P 1'
_cell_length_a   13.31460000
_cell_length_b   13.31460000
_cell_length_c   34.42830000
_cell_angle_alpha   89.12300000
_cell_angle_beta   88.87790000
_cell_angle_gamma   89.99910000
_symmetry_Int_Tables_number   1
_chemical_formula_structural   H26C43N6
_chemical_formula_sum   'H52 C86 N12'
_cell_volume   6101.51439108
_cell_formula_units_Z   2
loop_
 _symmetry_equiv_pos_site_id
 _symmetry_equiv_pos_as_xyz
  1  'x, y, z'
loop_
 _atom_site_type_symbol
 _atom_site_label
 _atom_site_symmetry_multiplicity
 _atom_site_fract_x
 _atom_site_fract_y
 _atom_site_fract_z
 _atom_site_occupancy
  C  1  1  0.99654700  0.98437700  0.16120800  1
  C  2  1  0.08613400  0.96060000  0.14067800  1
  C  3  1  0.09486550  0.97685100  0.10013000  1
  C  4  1  0.01016200  0.01081200  0.07965100  1
  C  5  1  0.91867350  0.03134200  0.09928700  1
  C  6  1  0.91341050  0.02075400  0.14004650  1
  C  13  1  0.07561900  0.05085500  0.65435500  1
  C  14  1  0.11238750  0.13308600  0.63195100  1
  C  15  1  0.10838200  0.13293200  0.59105900  1
  C  16  1  0.07311600  0.04629700  0.57245900  1
  C  17  1  0.03953900  0.96159800  0.59425500  1
  C  18  1  0.03843000  0.96561900  0.63516500  1
  C  25  1  0.02635750  0.01754300  0.75457700  1
  C  26  1  0.93905950  0.98752100  0.77558700  1
  C  27  1  0.93416050  0.99345300  0.81641700  1
  C  28  1  0.02043200  0.02314400  0.83647700  1
  C  29  1  0.10996350  0.04952600  0.81615300  1
  C  30  1  0.11128950  0.04969800  0.77517400  1
  C  37  1  0.91750600  0.00203800  0.25940200  1
  C  38  1  0.85005650  0.07185500  0.27593450  1
  C  39  1  0.82134200  0.06428400  0.31542200  1
  C  40  1  0.85978850  0.98584500  0.33857900  1
  C  41  1  0.92995050  0.91676100  0.32305200  1
  C  42  1  0.95730350  0.92452100  0.28316000  1
  C  49  1  0.58297400  0.95675100  0.93114900  1
  C  50  1  0.58083600  0.85017600  0.93117200  1
  C  51  1  0.44688950  0.84762900  0.98393000  1
  C  52  1  0.44514500  0.95419900  0.98445150  1
  C  53  1  0.37372500  0.00114900  0.00957800  1
  C  54  1  0.30550350  0.94538100  0.03354300  1
  C  55  1  0.31160900  0.83946300  0.03288000  1
  C  56  1  0.38154400  0.79143100  0.00863100  1
  C  57  1  0.64665400  0.79644700  0.90647600  1
  C  58  1  0.71770100  0.84685300  0.88286300  1
  C  59  1  0.72422900  0.95277700  0.88280200  1
  C  60  1  0.65514600  0.00619000  0.90651600  1
  C  61  1  0.44724100  0.07844400  0.93167650  1
  C  62  1  0.44957500  0.18500900  0.93197700  1
  C  63  1  0.58050350  0.18206600  0.98394700  1
  C  64  1  0.58147600  0.07545600  0.98422100  1
  C  65  1  0.64557700  0.23539200  0.00811800  1
  C  66  1  0.71447200  0.18449700  0.03151500  1
  C  67  1  0.71944000  0.07851000  0.03187300  1
  C  68  1  0.65146050  0.02556500  0.00857000  1
  C  69  1  0.37740400  0.03146100  0.90698100  1
  C  70  1  0.31097700  0.08718100  0.88331000  1
  C  71  1  0.31730100  0.19307100  0.88373550  1
  C  72  1  0.38595000  0.24114700  0.90752700  1
  C  85  1  0.51410050  0.01621300  0.95789100  1
  C  86  1  0.51530350  0.24160100  0.95800700  1
  C  89  1  0.51356300  0.79086500  0.95735400  1
  C  92  1  0.79530250  0.02790700  0.05128100  1
  C  93  1  0.80244200  0.00259100  0.86326100  1
  C  94  1  0.23494900  0.03922300  0.86357000  1
  C  98  1  0.22769000  0.99301500  0.05361050  1
  C  100  1  0.11117900  0.62800600  0.42652500  1
  C  101  1  0.21760500  0.63222400  0.42397100  1
  C  102  1  0.23096900  0.49234200  0.47421300  1
  C  103  1  0.12478500  0.48580200  0.47738000  1
  C  104  1  0.08238400  0.41016300  0.50231100  1
  C  105  1  0.14205750  0.34104500  0.52329800  1
  C  106  1  0.24752850  0.35096600  0.52007600  1
  C  107  1  0.29117750  0.42590000  0.49612000  1
  C  108  1  0.26505100  0.70279900  0.39859400  1
  C  109  1  0.20850600  0.77067300  0.37637900  1
  C  110  1  0.10282000  0.76924400  0.37869800  1
  C  111  1  0.05544400  0.69721600  0.40361800  1
  C  112  1  0.99686500  0.48626600  0.42828600  1
  C  113  1  0.89089450  0.47863800  0.43281800  1
  C  114  1  0.89208550  0.60655500  0.48639200  1
  C  115  1  0.99799750  0.61571300  0.48270800  1
  C  116  1  0.83869750  0.66655000  0.51326800  1
  C  117  1  0.88842650  0.73826700  0.53532600  1
  C  118  1  0.99359750  0.75102700  0.53174700  1
  C  119  1  0.04690450  0.68729500  0.50606200  1
  C  120  1  0.04559800  0.42597600  0.39984100  1
  C  121  1  0.99114950  0.36050100  0.37627200  1
  C  122  1  0.88609250  0.35444300  0.38100200  1
  C  123  1  0.83668550  0.41292200  0.40906300  1
  C  136  1  0.05771600  0.55412300  0.45373500  1
  C  137  1  0.83391050  0.53706300  0.46220400  1
  C  140  1  0.28219000  0.56565700  0.44772000  1
  C  143  1  0.04343850  0.82909200  0.54977800  1
  C  144  1  0.05149450  0.84502300  0.35938800  1
  C  145  1  0.03735950  0.30560500  0.35048500  1
  C  149  1  0.09695750  0.26159800  0.54376700  1
  H  7  1  0.01454500  0.01923700  0.05005100  1
  H  8  1  0.84719400  0.03666700  0.15427100  1
  H  9  1  0.14625400  0.93256300  0.15547000  1
  H  19  1  0.07157300  0.04501200  0.54274700  1
  H  20  1  0.01247200  0.90510000  0.65108700  1
  H  21  1  0.13898350  0.19534300  0.64556000  1
  H  31  1  0.01830850  0.02476000  0.86621200  1
  H  32  1  0.17547900  0.07052900  0.76030400  1
  H  33  1  0.87748350  0.96319300  0.76099500  1
  H  43  1  0.83704450  0.97878300  0.36709600  1
  H  44  1  0.00382550  0.87166700  0.27123600  1
  H  45  1  0.81968350  0.12742500  0.25886150  1
  H  73  1  0.26943000  0.23677100  0.86784200  1
  H  74  1  0.38662050  0.31804300  0.90787600  1
  H  75  1  0.64590050  0.31232000  0.00778100  1
  H  76  1  0.76342900  0.22624300  0.04719350  1
  H  77  1  0.65505350  0.94873300  0.00824400  1
  H  78  1  0.37286650  0.95465500  0.90726000  1
  H  79  1  0.36943300  0.07796200  0.00942150  1
  H  80  1  0.26255800  0.79559000  0.04890150  1
  H  81  1  0.38181300  0.71453700  0.00810600  1
  H  82  1  0.65966350  0.08295100  0.90702200  1
  H  83  1  0.64604700  0.71951700  0.90661950  1
  H  84  1  0.76709850  0.80462400  0.86684800  1
  H  87  1  0.56358700  0.29028300  0.93981000  1
  H  88  1  0.46752850  0.28922200  0.97625100  1
  H  90  1  0.56032500  0.74142500  0.97512750  1
  H  91  1  0.46638200  0.74402300  0.93928400  1
  H  95  1  0.21089450  0.97258900  0.87351000  1
  H  96  1  0.81910500  0.96230600  0.04102200  1
  H  97  1  0.82409650  0.06940000  0.87270200  1
  H  99  1  0.20496250  0.06016400  0.04414500  1
  H  124  1  0.84449150  0.30753000  0.36432700  1
  H  125  1  0.76027500  0.40689400  0.41214300  1
  H  126  1  0.76217100  0.66096100  0.51596700  1
  H  127  1  0.84618250  0.78319700  0.55312500  1
  H  128  1  0.12312350  0.69580700  0.50297100  1
  H  129  1  0.12221100  0.42991000  0.39652600  1
  H  130  1  0.00579600  0.40352200  0.50419700  1
  H  131  1  0.29393800  0.30185100  0.53419600  1
  H  132  1  0.36788000  0.42955000  0.49380700  1
  H  133  1  0.97867950  0.69686600  0.40602700  1
  H  134  1  0.34179350  0.70685400  0.39676700  1
  H  135  1  0.24570000  0.82272300  0.35922500  1
  H  138  1  0.77757700  0.58144100  0.44684300  1
  H  139  1  0.79468650  0.48391300  0.48172000  1
  H  141  1  0.32982350  0.61319300  0.46532200  1
  H  142  1  0.33066700  0.52355300  0.42776800  1
  H  146  1  0.07000900  0.26668700  0.33224500  1
  H  147  1  0.11180300  0.84825800  0.53993200  1
  H  148  1  0.99057700  0.87074900  0.37318000  1
  H  150  1  0.02805650  0.24063300  0.53647100  1
  N  10  1  0.99274700  0.96847300  0.19946800  1
  N  11  1  0.17761250  0.94833100  0.08121300  1
  N  12  1  0.84015900  0.06657500  0.08027500  1
  N  22  1  0.07853000  0.05760600  0.69267900  1
  N  23  1  0.14164850  0.21251000  0.57091300  1
  N  24  1  0.00270200  0.88136900  0.57701400  1
  N  34  1  0.02441150  0.01209800  0.71621900  1
  N  35  1  0.85254250  0.96126900  0.83542800  1
  N  36  1  0.18949350  0.08164300  0.83500400  1
  N  46  1  0.93288050  0.01024500  0.22142500  1
  N  47  1  0.75945750  0.12516600  0.32959200  1
  N  48  1  0.96167250  0.83512900  0.34656300  1
