# generated using pymatgen
data_Zn4H12C24O13
_symmetry_space_group_name_H-M   'P 1'
_cell_length_a   18.26600000
_cell_length_b   18.26600000
_cell_length_c   18.26600000
_cell_angle_alpha   60.00000000
_cell_angle_beta   60.00000000
_cell_angle_gamma   60.00000000
_symmetry_Int_Tables_number   1
_chemical_formula_structural   Zn4H12C24O13
_chemical_formula_sum   'Zn8 H24 C48 O26'
_cell_volume   4309.38565945
_cell_formula_units_Z   2
loop_
 _symmetry_equiv_pos_site_id
 _symmetry_equiv_pos_as_xyz
  1  'x, y, z'
loop_
 _atom_site_type_symbol
 _atom_site_label
 _atom_site_symmetry_multiplicity
 _atom_site_fract_x
 _atom_site_fract_y
 _atom_site_fract_z
 _atom_site_occupancy
  Zn  Zn1  1  0.88014000  0.70662000  0.70662000  1.0
  Zn  Zn2  1  0.70662000  0.88014000  0.70662000  1.0
  Zn  Zn3  1  0.70662000  0.70662000  0.70662000  1.0
  Zn  Zn4  1  0.70662000  0.70662000  0.88014000  1.0
  Zn  Zn5  1  0.11986000  0.29338000  0.29338000  1.0
  Zn  Zn6  1  0.29338000  0.11986000  0.29338000  1.0
  Zn  Zn7  1  0.29338000  0.29338000  0.11986000  1.0
  Zn  Zn8  1  0.29338000  0.29338000  0.29338000  1.0
  H  H1  1  0.06500000  0.54480000  0.84540000  1.0
  H  H2  1  0.54480000  0.06500000  0.54480000  1.0
  H  H3  1  0.54480000  0.84540000  0.54480000  1.0
  H  H4  1  0.84540000  0.54480000  0.06500000  1.0
  H  H5  1  0.54480000  0.06500000  0.84540000  1.0
  H  H6  1  0.84540000  0.54480000  0.54480000  1.0
  H  H7  1  0.06500000  0.54480000  0.54480000  1.0
  H  H8  1  0.54480000  0.84540000  0.06500000  1.0
  H  H9  1  0.54480000  0.54480000  0.84540000  1.0
  H  H10  1  0.06500000  0.84540000  0.54480000  1.0
  H  H11  1  0.84540000  0.06500000  0.54480000  1.0
  H  H12  1  0.54480000  0.54480000  0.06500000  1.0
  H  H13  1  0.93500000  0.45520000  0.45520000  1.0
  H  H14  1  0.45520000  0.93500000  0.15460000  1.0
  H  H15  1  0.45520000  0.15460000  0.93500000  1.0
  H  H16  1  0.15460000  0.45520000  0.45520000  1.0
  H  H17  1  0.45520000  0.93500000  0.45520000  1.0
  H  H18  1  0.15460000  0.45520000  0.93500000  1.0
  H  H19  1  0.93500000  0.45520000  0.15460000  1.0
  H  H20  1  0.45520000  0.15460000  0.45520000  1.0
  H  H21  1  0.45520000  0.45520000  0.93500000  1.0
  H  H22  1  0.93500000  0.15460000  0.45520000  1.0
  H  H23  1  0.15460000  0.93500000  0.45520000  1.0
  H  H24  1  0.45520000  0.45520000  0.15460000  1.0
  C  C1  1  0.03890000  0.52690000  0.90730000  1.0
  C  C2  1  0.52690000  0.03890000  0.52690000  1.0
  C  C3  1  0.52690000  0.90730000  0.52690000  1.0
  C  C4  1  0.90730000  0.52690000  0.03890000  1.0
  C  C5  1  0.52690000  0.03890000  0.90730000  1.0
  C  C6  1  0.90730000  0.52690000  0.52690000  1.0
  C  C7  1  0.03890000  0.52690000  0.52690000  1.0
  C  C8  1  0.52690000  0.90730000  0.03890000  1.0
  C  C9  1  0.52690000  0.52690000  0.90730000  1.0
  C  C10  1  0.03890000  0.90730000  0.52690000  1.0
  C  C11  1  0.90730000  0.03890000  0.52690000  1.0
  C  C12  1  0.52690000  0.52690000  0.03890000  1.0
  C  C13  1  0.96110000  0.47310000  0.47310000  1.0
  C  C14  1  0.47310000  0.96110000  0.09270000  1.0
  C  C15  1  0.47310000  0.09270000  0.96110000  1.0
  C  C16  1  0.09270000  0.47310000  0.47310000  1.0
  C  C17  1  0.47310000  0.96110000  0.47310000  1.0
  C  C18  1  0.09270000  0.47310000  0.96110000  1.0
  C  C19  1  0.96110000  0.47310000  0.09270000  1.0
  C  C20  1  0.47310000  0.09270000  0.47310000  1.0
  C  C21  1  0.47310000  0.47310000  0.96110000  1.0
  C  C22  1  0.96110000  0.09270000  0.47310000  1.0
  C  C23  1  0.09270000  0.96110000  0.47310000  1.0
  C  C24  1  0.47310000  0.47310000  0.09270000  1.0
  C  C25  1  0.88870000  0.61130000  0.88870000  1.0
  C  C26  1  0.94620000  0.55380000  0.94620000  1.0
  C  C27  1  0.61130000  0.88870000  0.61130000  1.0
  C  C28  1  0.55380000  0.94620000  0.55380000  1.0
  C  C29  1  0.61130000  0.88870000  0.88870000  1.0
  C  C30  1  0.55380000  0.94620000  0.94620000  1.0
  C  C31  1  0.88870000  0.61130000  0.61130000  1.0
  C  C32  1  0.94620000  0.55380000  0.55380000  1.0
  C  C33  1  0.61130000  0.61130000  0.88870000  1.0
  C  C34  1  0.55380000  0.55380000  0.94620000  1.0
  C  C35  1  0.88870000  0.88870000  0.61130000  1.0
  C  C36  1  0.94620000  0.94620000  0.55380000  1.0
  C  C37  1  0.11130000  0.38870000  0.38870000  1.0
  C  C38  1  0.05380000  0.44620000  0.44620000  1.0
  C  C39  1  0.38870000  0.11130000  0.11130000  1.0
  C  C40  1  0.44620000  0.05380000  0.05380000  1.0
  C  C41  1  0.38870000  0.11130000  0.38870000  1.0
  C  C42  1  0.44620000  0.05380000  0.44620000  1.0
  C  C43  1  0.11130000  0.38870000  0.11130000  1.0
  C  C44  1  0.05380000  0.44620000  0.05380000  1.0
  C  C45  1  0.38870000  0.38870000  0.11130000  1.0
  C  C46  1  0.44620000  0.44620000  0.05380000  1.0
  C  C47  1  0.11130000  0.11130000  0.38870000  1.0
  C  C48  1  0.05380000  0.05380000  0.44620000  1.0
  O  O1  1  0.75000000  0.75000000  0.75000000  1.0
  O  O2  1  0.25000000  0.25000000  0.25000000  1.0
  O  O3  1  0.92977000  0.63400000  0.80223000  1.0
  O  O4  1  0.63400000  0.92977000  0.63400000  1.0
  O  O5  1  0.63400000  0.80223000  0.63400000  1.0
  O  O6  1  0.80223000  0.63400000  0.92977000  1.0
  O  O7  1  0.63400000  0.92977000  0.80223000  1.0
  O  O8  1  0.80223000  0.63400000  0.63400000  1.0
  O  O9  1  0.92977000  0.63400000  0.63400000  1.0
  O  O10  1  0.63400000  0.80223000  0.92977000  1.0
  O  O11  1  0.63400000  0.63400000  0.80223000  1.0
  O  O12  1  0.92977000  0.80223000  0.63400000  1.0
  O  O13  1  0.80223000  0.92977000  0.63400000  1.0
  O  O14  1  0.63400000  0.63400000  0.92977000  1.0
  O  O15  1  0.07023000  0.36600000  0.36600000  1.0
  O  O16  1  0.36600000  0.07023000  0.19777000  1.0
  O  O17  1  0.36600000  0.19777000  0.07023000  1.0
  O  O18  1  0.19777000  0.36600000  0.36600000  1.0
  O  O19  1  0.36600000  0.07023000  0.36600000  1.0
  O  O20  1  0.19777000  0.36600000  0.07023000  1.0
  O  O21  1  0.07023000  0.36600000  0.19777000  1.0
  O  O22  1  0.36600000  0.19777000  0.36600000  1.0
  O  O23  1  0.36600000  0.36600000  0.07023000  1.0
  O  O24  1  0.07023000  0.19777000  0.36600000  1.0
  O  O25  1  0.19777000  0.07023000  0.36600000  1.0
  O  O26  1  0.36600000  0.36600000  0.19777000  1.0
