# generated using pymatgen
data_Co3H24C38(N3O2)4
_symmetry_space_group_name_H-M   'P 1'
_cell_length_a   11.44453000
_cell_length_b   11.69900000
_cell_length_c   11.86160000
_cell_angle_alpha   64.68762000
_cell_angle_beta   81.43415000
_cell_angle_gamma   72.15510000
_symmetry_Int_Tables_number   1
_chemical_formula_structural   Co3H24C38(N3O2)4
_chemical_formula_sum   'Co3 H24 C38 N12 O8'
_cell_volume   1366.29976041
_cell_formula_units_Z   1
loop_
 _symmetry_equiv_pos_site_id
 _symmetry_equiv_pos_as_xyz
  1  'x, y, z'
loop_
 _atom_site_type_symbol
 _atom_site_label
 _atom_site_symmetry_multiplicity
 _atom_site_fract_x
 _atom_site_fract_y
 _atom_site_fract_z
 _atom_site_occupancy
  Co  Co0  1  0.99994000  0.00017000  0.00006000  1
  Co  Co1  1  0.00033000  0.99986000  0.49973000  1
  Co  Co2  1  0.99983000  0.49944000  0.50078000  1
  H  H3  1  0.55414000  0.56344000  0.66788000  1
  H  H4  1  0.21021000  0.01812000  0.30069000  1
  H  H5  1  0.13908000  0.19135000  0.98570000  1
  H  H6  1  0.36562000  0.58501000  0.63734000  1
  H  H7  1  0.84681000  0.27413000  0.35970000  1
  H  H8  1  0.64688000  0.79779000  0.01988000  1
  H  H9  1  0.74647000  0.19897000  0.96307000  1
  H  H10  1  0.42664000  0.89130000  0.28497000  1
  H  H11  1  0.47343000  0.79410000  0.03145000  1
  H  H12  1  0.21964000  0.53499000  0.32787000  1
  H  H13  1  0.35313000  0.20220000  0.98012000  1
  H  H14  1  0.57337000  0.10870000  0.71502000  1
  H  H15  1  0.78979000  0.98192000  0.69932000  1
  H  H16  1  0.80963000  0.62893000  0.28633000  1
  H  H17  1  0.78042000  0.46504000  0.67210000  1
  H  H18  1  0.52658000  0.20589000  0.96855000  1
  H  H19  1  0.44589000  0.43655000  0.33212000  1
  H  H20  1  0.63441000  0.41497000  0.36265000  1
  H  H21  1  0.19036000  0.37111000  0.71367000  1
  H  H22  1  0.86092000  0.80864000  0.01431000  1
  H  H23  1  0.25355000  0.80103000  0.03694000  1
  H  H24  1  0.15324000  0.72582000  0.64033000  1
  H  H25  1  0.41612000  0.26779000  0.73415000  1
  H  H26  1  0.58390000  0.73220000  0.26585000  1
  C  C27  1  0.26706000  0.47611000  0.41621000  1
  C  C28  1  0.45152000  0.34261000  0.53364000  1
  C  C29  1  0.37650000  0.32671000  0.64225000  1
  C  C30  1  0.03807000  0.97069000  0.76806000  1
  C  C31  1  0.40289000  0.88506000  0.02080000  1
  C  C32  1  0.71899000  0.11155000  0.97644000  1
  C  C33  1  0.56496000  0.00058000  0.99722000  1
  C  C34  1  0.24836000  0.92137000  0.37337000  1
  C  C35  1  0.96168000  0.03025000  0.23300000  1
  C  C36  1  0.63126000  0.15029000  0.63492000  1
  C  C37  1  0.39313000  0.42221000  0.41970000  1
  C  C38  1  0.01711000  0.11156000  0.73119000  1
  C  C39  1  0.54845000  0.65742000  0.46637000  1
  C  C40  1  0.95230000  0.75238000  0.51287000  1
  C  C41  1  0.66335000  0.89003000  0.00804000  1
  C  C42  1  0.97886000  0.77822000  0.37994000  1
  C  C43  1  0.75146000  0.07867000  0.62670000  1
  C  C44  1  0.78328000  0.24118000  0.43684000  1
  C  C45  1  0.59714000  0.11497000  0.97910000  1
  C  C46  1  0.25066000  0.38445000  0.63073000  1
  C  C47  1  0.02104000  0.22205000  0.62009000  1
  C  C48  1  0.98298000  0.88797000  0.26897000  1
  C  C49  1  0.28102000  0.88842000  0.02363000  1
  C  C50  1  0.43504000  0.99938000  0.00285000  1
  C  C51  1  0.73304000  0.52373000  0.58404000  1
  C  C52  1  0.60696000  0.57774000  0.58021000  1
  C  C53  1  0.36876000  0.84964000  0.36505000  1
  C  C54  1  0.78287000  0.89422000  0.00503000  1
  C  C55  1  0.04753000  0.24814000  0.48758000  1
  C  C56  1  0.58331000  0.27198000  0.53783000  1
  C  C57  1  0.62355000  0.67323000  0.35772000  1
  C  C58  1  0.21687000  0.75887000  0.56296000  1
  C  C59  1  0.74908000  0.61563000  0.36919000  1
  C  C60  1  0.66406000  0.31855000  0.43830000  1
  C  C61  1  0.21710000  0.10576000  0.99505000  1
  C  C62  1  0.41667000  0.72804000  0.46216000  1
  C  C63  1  0.33601000  0.68130000  0.56174000  1
  C  C64  1  0.33667000  0.10999000  0.99187000  1
  N  N65  1  0.99488000  0.32525000  0.65324000  1
  N  N66  1  0.81199000  0.00386000  0.99002000  1
  N  N67  1  0.18800000  0.99615000  0.00990000  1
  N  N68  1  0.02441000  0.71471000  0.22333000  1
  N  N69  1  0.19614000  0.45717000  0.51994000  1
  N  N70  1  0.00446000  0.67354000  0.34809000  1
  N  N71  1  0.82651000  0.12125000  0.52854000  1
  N  N72  1  0.98969000  0.15489000  0.82458000  1
  N  N73  1  0.17440000  0.87822000  0.47279000  1
  N  N74  1  0.01041000  0.84448000  0.17585000  1
  N  N75  1  0.97567000  0.28518000  0.77615000  1
  N  N76  1  0.80491000  0.54392000  0.47883000  1
  O  O77  1  0.04501000  0.92344000  0.68477000  1
  O  O78  1  0.95313000  0.10167000  0.11508000  1
  O  O79  1  0.04696000  0.89835000  0.88416000  1
  O  O80  1  0.95427000  0.63423000  0.58485000  1
  O  O81  1  0.92622000  0.84400000  0.55082000  1
  O  O82  1  0.04558000  0.36668000  0.41406000  1
  O  O83  1  0.95434000  0.07721000  0.31264000  1
  O  O84  1  0.07347000  0.15520000  0.45018000  1
