# generated using pymatgen
data_ZnH21C27N7
_symmetry_space_group_name_H-M   'P 1'
_cell_length_a   9.38877000
_cell_length_b   20.72124000
_cell_length_c   31.30139000
_cell_angle_alpha   90.11709000
_cell_angle_beta   89.82547000
_cell_angle_gamma   90.41597000
_symmetry_Int_Tables_number   1
_chemical_formula_structural   ZnH21C27N7
_chemical_formula_sum   'Zn8 H168 C216 N56'
_cell_volume   6089.38897856
_cell_formula_units_Z   8
loop_
 _symmetry_equiv_pos_site_id
 _symmetry_equiv_pos_as_xyz
  1  'x, y, z'
loop_
 _atom_site_type_symbol
 _atom_site_label
 _atom_site_symmetry_multiplicity
 _atom_site_fract_x
 _atom_site_fract_y
 _atom_site_fract_z
 _atom_site_occupancy
  Zn  Zn0  1  0.07476000  0.18038000  0.52058000  1
  Zn  Zn1  1  0.43239000  0.31348000  0.02077000  1
  Zn  Zn2  1  0.93914000  0.68669000  0.52040000  1
  Zn  Zn3  1  0.56085000  0.81626000  0.02048000  1
  Zn  Zn4  1  0.07464000  0.30998000  0.48161000  1
  Zn  Zn5  1  0.42507000  0.18358000  0.98041000  1
  Zn  Zn6  1  0.93876000  0.81637000  0.47923000  1
  Zn  Zn7  1  0.56740000  0.68661000  0.97928000  1
  H  H8  1  0.39968000  0.25595000  0.16511000  1
  H  H9  1  0.49005000  0.43809000  0.30994000  1
  H  H10  1  0.72226000  0.39857000  0.17620000  1
  H  H11  1  0.22322000  0.40990000  0.30799000  1
  H  H12  1  0.05152000  0.49060000  0.33259000  1
  H  H13  1  0.74332000  0.21455000  0.41755000  1
  H  H14  1  0.49745000  0.22660000  0.23515000  1
  H  H15  1  0.55943000  0.43241000  0.23335000  1
  H  H16  1  0.04994000  0.55331000  0.47509000  1
  H  H17  1  0.36298000  0.38374000  0.43775000  1
  H  H18  1  0.42117000  0.23281000  0.31112000  1
  H  H19  1  0.18030000  0.45875000  0.46300000  1
  H  H20  1  0.66955000  0.37269000  0.08997000  1
  H  H21  1  0.65893000  0.29617000  0.36725000  1
  H  H22  1  0.80794000  0.17991000  0.48059000  1
  H  H23  1  0.66140000  0.57678000  0.41028000  1
  H  H24  1  0.31326000  0.19103000  0.46554000  1
  H  H25  1  0.83867000  0.50126000  0.36041000  1
  H  H26  1  0.22915000  0.27092000  0.41318000  1
  H  H27  1  0.58469000  0.02797000  0.53987000  1
  H  H28  1  0.39446000  0.09620000  0.48965000  1
  H  H29  1  0.10399000  0.24469000  0.66562000  1
  H  H30  1  0.01200000  0.06132000  0.80903000  1
  H  H31  1  0.77882000  0.10313000  0.67615000  1
  H  H32  1  0.27985000  0.08965000  0.80778000  1
  H  H33  1  0.45036000  0.00869000  0.83221000  1
  H  H34  1  0.75932000  0.28536000  0.91850000  1
  H  H35  1  0.00429000  0.27391000  0.73619000  1
  H  H36  1  0.94275000  0.06816000  0.73263000  1
  H  H37  1  0.44606000  0.94571000  0.97488000  1
  H  H38  1  0.13199000  0.11357000  0.93729000  1
  H  H39  1  0.08009000  0.26664000  0.81199000  1
  H  H40  1  0.31307000  0.03799000  0.96246000  1
  H  H41  1  0.83445000  0.12877000  0.59002000  1
  H  H42  1  0.84216000  0.20295000  0.86815000  1
  H  H43  1  0.69555000  0.32069000  0.98151000  1
  H  H44  1  0.83578000  0.92111000  0.91014000  1
  H  H45  1  0.19015000  0.30849000  0.96519000  1
  H  H46  1  0.65974000  0.99596000  0.86000000  1
  H  H47  1  0.27260000  0.22767000  0.91286000  1
  H  H48  1  0.92055000  0.47265000  0.04015000  1
  H  H49  1  0.10973000  0.40378000  0.98949000  1
  H  H50  1  0.59912000  0.75611000  0.16543000  1
  H  H51  1  0.52259000  0.93978000  0.30940000  1
  H  H52  1  0.28327000  0.89982000  0.17673000  1
  H  H53  1  0.78696000  0.91047000  0.30781000  1
  H  H54  1  0.96325000  0.99002000  0.33265000  1
  H  H55  1  0.26379000  0.71254000  0.41824000  1
  H  H56  1  0.49816000  0.72751000  0.23588000  1
  H  H57  1  0.45196000  0.93371000  0.23305000  1
  H  H58  1  0.96106000  0.05326000  0.47502000  1
  H  H59  1  0.63897000  0.88630000  0.43721000  1
  H  H60  1  0.57594000  0.73399000  0.31154000  1
  H  H61  1  0.82504000  0.96055000  0.46276000  1
  H  H62  1  0.33588000  0.87372000  0.09046000  1
  H  H63  1  0.34619000  0.79561000  0.36796000  1
  H  H64  1  0.20227000  0.67979000  0.48281000  1
  H  H65  1  0.35566000  0.07290000  0.41186000  1
  H  H66  1  0.69494000  0.69250000  0.46471000  1
  H  H67  1  0.17583000  0.99905000  0.36123000  1
  H  H68  1  0.77729000  0.77349000  0.41223000  1
  H  H69  1  0.42366000  0.52673000  0.53938000  1
  H  H70  1  0.61240000  0.59496000  0.48761000  1
  H  H71  1  0.89853000  0.74267000  0.66467000  1
  H  H72  1  0.97757000  0.56022000  0.80876000  1
  H  H73  1  0.21436000  0.59908000  0.67548000  1
  H  H74  1  0.71277000  0.58990000  0.80760000  1
  H  H75  1  0.53757000  0.50998000  0.83263000  1
  H  H76  1  0.23549000  0.78866000  0.91736000  1
  H  H77  1  0.00037000  0.77189000  0.73489000  1
  H  H78  1  0.04699000  0.56566000  0.73216000  1
  H  H79  1  0.54224000  0.44626000  0.97475000  1
  H  H80  1  0.86100000  0.61457000  0.93677000  1
  H  H81  1  0.92384000  0.76606000  0.81086000  1
  H  H82  1  0.67549000  0.54014000  0.96254000  1
  H  H83  1  0.16246000  0.62473000  0.58929000  1
  H  H84  1  0.15389000  0.70572000  0.86680000  1
  H  H85  1  0.29599000  0.81966000  0.98282000  1
  H  H86  1  0.14856000  0.42401000  0.91211000  1
  H  H87  1  0.80437000  0.80739000  0.96483000  1
  H  H88  1  0.32548000  0.49975000  0.86170000  1
  H  H89  1  0.72264000  0.72695000  0.91185000  1
  H  H90  1  0.07463000  0.97257000  0.04040000  1
  H  H91  1  0.88669000  0.90537000  0.98793000  1
  H  H92  1  0.39862000  0.24318000  0.83520000  1
  H  H93  1  0.47925000  0.05970000  0.69140000  1
  H  H94  1  0.71738000  0.10077000  0.82432000  1
  H  H95  1  0.21265000  0.09019000  0.69310000  1
  H  H96  1  0.03818000  0.00942000  0.66880000  1
  H  H97  1  0.74191000  0.28394000  0.58238000  1
  H  H98  1  0.50111000  0.27219000  0.76475000  1
  H  H99  1  0.54944000  0.06609000  0.76776000  1
  H  H100  1  0.04575000  0.94219000  0.52727000  1
  H  H101  1  0.36314000  0.11158000  0.56370000  1
  H  H102  1  0.42416000  0.26541000  0.68899000  1
  H  H103  1  0.17884000  0.03600000  0.53863000  1
  H  H104  1  0.66397000  0.12708000  0.91053000  1
  H  H105  1  0.65571000  0.20208000  0.63286000  1
  H  H106  1  0.80527000  0.31616000  0.51745000  1
  H  H107  1  0.65045000  0.92156000  0.58994000  1
  H  H108  1  0.31255000  0.30613000  0.53512000  1
  H  H109  1  0.82672000  0.99823000  0.63989000  1
  H  H110  1  0.22678000  0.22591000  0.58752000  1
  H  H111  1  0.58853000  0.47078000  0.46110000  1
  H  H112  1  0.39729000  0.40316000  0.51246000  1
  H  H113  1  0.10399000  0.25370000  0.33505000  1
  H  H114  1  0.02147000  0.43844000  0.19219000  1
  H  H115  1  0.78720000  0.39709000  0.32551000  1
  H  H116  1  0.28659000  0.40979000  0.19289000  1
  H  H117  1  0.45964000  0.49098000  0.16835000  1
  H  H118  1  0.75751000  0.21450000  0.08375000  1
  H  H119  1  0.00341000  0.22560000  0.26468000  1
  H  H120  1  0.95238000  0.43159000  0.26875000  1
  H  H121  1  0.45355000  0.55671000  0.02670000  1
  H  H122  1  0.14079000  0.38525000  0.06346000  1
  H  H123  1  0.07957000  0.23293000  0.18875000  1
  H  H124  1  0.32444000  0.46088000  0.03818000  1
  H  H125  1  0.83970000  0.36999000  0.41144000  1
  H  H126  1  0.84515000  0.29641000  0.13413000  1
  H  H127  1  0.69271000  0.18312000  0.01843000  1
  H  H128  1  0.84700000  0.57989000  0.08936000  1
  H  H129  1  0.18542000  0.19232000  0.03444000  1
  H  H130  1  0.67189000  0.50259000  0.13935000  1
  H  H131  1  0.27278000  0.27225000  0.08692000  1
  H  H132  1  0.90695000  0.02770000  0.96133000  1
  H  H133  1  0.09934000  0.09490000  0.01249000  1
  H  H134  1  0.60338000  0.74187000  0.83242000  1
  H  H135  1  0.51667000  0.55623000  0.69021000  1
  H  H136  1  0.27447000  0.60210000  0.82237000  1
  H  H137  1  0.78027000  0.58271000  0.69177000  1
  H  H138  1  0.95387000  0.50235000  0.66782000  1
  H  H139  1  0.26230000  0.77550000  0.57954000  1
  H  H140  1  0.50369000  0.77032000  0.76154000  1
  H  H141  1  0.44396000  0.56457000  0.76641000  1
  H  H142  1  0.96404000  0.44119000  0.52522000  1
  H  H143  1  0.65052000  0.61080000  0.56124000  1
  H  H144  1  0.58280000  0.76157000  0.68595000  1
  H  H145  1  0.83465000  0.53600000  0.53678000  1
  H  H146  1  0.32666000  0.62982000  0.90842000  1
  H  H147  1  0.34686000  0.69281000  0.62886000  1
  H  H148  1  0.19989000  0.81618000  0.51897000  1
  H  H149  1  0.35039000  0.41836000  0.59134000  1
  H  H150  1  0.69558000  0.80654000  0.53597000  1
  H  H151  1  0.16943000  0.49260000  0.64097000  1
  H  H152  1  0.77888000  0.72516000  0.58741000  1
  H  H153  1  0.42331000  0.97156000  0.46388000  1
  H  H154  1  0.61328000  0.90059000  0.51239000  1
  H  H155  1  0.89193000  0.75799000  0.33176000  1
  H  H156  1  0.97799000  0.94328000  0.18988000  1
  H  H157  1  0.22354000  0.89644000  0.32094000  1
  H  H158  1  0.71394000  0.91664000  0.19186000  1
  H  H159  1  0.54001000  0.99693000  0.16849000  1
  H  H160  1  0.23554000  0.72615000  0.07820000  1
  H  H161  1  0.99122000  0.72897000  0.26039000  1
  H  H162  1  0.05183000  0.93470000  0.26584000  1
  H  H163  1  0.53026000  0.05816000  0.02608000  1
  H  H164  1  0.84489000  0.88932000  0.06107000  1
  H  H165  1  0.91106000  0.73801000  0.18506000  1
  H  H166  1  0.66073000  0.96426000  0.03720000  1
  H  H167  1  0.17131000  0.86934000  0.40706000  1
  H  H168  1  0.14830000  0.80866000  0.12764000  1
  H  H169  1  0.29894000  0.68571000  0.01708000  1
  H  H170  1  0.14160000  0.07884000  0.09205000  1
  H  H171  1  0.80316000  0.69221000  0.03542000  1
  H  H172  1  0.32367000  0.00597000  0.14170000  1
  H  H173  1  0.71709000  0.77330000  0.08703000  1
  H  H174  1  0.07966000  0.52860000  0.96263000  1
  H  H175  1  0.88838000  0.59830000  0.01200000  1
  C  C176  1  0.30426000  0.38940000  0.37134000  1
  C  C177  1  0.48184000  0.28978000  0.15530000  1
  C  C178  1  0.49100000  0.39188000  0.29342000  1
  C  C179  1  0.53475000  0.19810000  0.44598000  1
  C  C180  1  0.44645000  0.33611000  0.31549000  1
  C  C181  1  0.53009000  0.32927000  0.22901000  1
  C  C182  1  0.64660000  0.36671000  0.16070000  1
  C  C183  1  0.09963000  0.47897000  0.39951000  1
  C  C184  1  0.21673000  0.42132000  0.34182000  1
  C  C185  1  0.11800000  0.46633000  0.35583000  1
  C  C186  1  0.43952000  0.29034000  0.38727000  1
  C  C187  1  0.63105000  0.22706000  0.41741000  1
  C  C188  1  0.49382000  0.27299000  0.25142000  1
  C  C189  1  0.53054000  0.38866000  0.25055000  1
  C  C190  1  0.96587000  0.54947000  0.45145000  1
  C  C191  1  0.29369000  0.40651000  0.41464000  1
  C  C192  1  0.45129000  0.27645000  0.29399000  1
  C  C193  1  0.19073000  0.44975000  0.42887000  1
  C  C194  1  0.62091000  0.35206000  0.11846000  1
  C  C195  1  0.58330000  0.27305000  0.38868000  1
  C  C196  1  0.72390000  0.14674000  0.49012000  1
  C  C197  1  0.76890000  0.56078000  0.41662000  1
  C  C198  1  0.39000000  0.21400000  0.44414000  1
  C  C199  1  0.85562000  0.52431000  0.39092000  1
  C  C200  1  0.34213000  0.25919000  0.41451000  1
  C  C201  1  0.60393000  0.07002000  0.52013000  1
  C  C202  1  0.50748000  0.10307000  0.49556000  1
  C  C203  1  0.19511000  0.10908000  0.87106000  1
  C  C204  1  0.02152000  0.21114000  0.65567000  1
  C  C205  1  0.01093000  0.10778000  0.79294000  1
  C  C206  1  0.96832000  0.30164000  0.94631000  1
  C  C207  1  0.05495000  0.16327000  0.81548000  1
  C  C208  1  0.97170000  0.17135000  0.72919000  1
  C  C209  1  0.85549000  0.13471000  0.66078000  1
  C  C210  1  0.39809000  0.01910000  0.89908000  1
  C  C211  1  0.28438000  0.07766000  0.84152000  1
  C  C212  1  0.38236000  0.03248000  0.85546000  1
  C  C213  1  0.06183000  0.20860000  0.88748000  1
  C  C214  1  0.87139000  0.27254000  0.91810000  1
  C  C215  1  0.00789000  0.22730000  0.75204000  1
  C  C216  1  0.97149000  0.11165000  0.75018000  1
  C  C217  1  0.53050000  0.94909000  0.95119000  1
  C  C218  1  0.20285000  0.09122000  0.91421000  1
  C  C219  1  0.05019000  0.22324000  0.79451000  1
  C  C220  1  0.30497000  0.04772000  0.92839000  1
  C  C221  1  0.88263000  0.14926000  0.61859000  1
  C  C222  1  0.91824000  0.22617000  0.88931000  1
  C  C223  1  0.77997000  0.35383000  0.99074000  1
  C  C224  1  0.72815000  0.93720000  0.91641000  1
  C  C225  1  0.11285000  0.28536000  0.94412000  1
  C  C226  1  0.64200000  0.97333000  0.89058000  1
  C  C227  1  0.15981000  0.23971000  0.91445000  1
  C  C228  1  0.90073000  0.43053000  0.02045000  1
  C  C229  1  0.99674000  0.39716000  0.99566000  1
  C  C230  1  0.70196000  0.89095000  0.37104000  1
  C  C231  1  0.51861000  0.79017000  0.15568000  1
  C  C232  1  0.51789000  0.89338000  0.29316000  1
  C  C233  1  0.47300000  0.69786000  0.44588000  1
  C  C234  1  0.55825000  0.83750000  0.31546000  1
  C  C235  1  0.47273000  0.83031000  0.22929000  1
  C  C236  1  0.35732000  0.86758000  0.16119000  1
  C  C237  1  0.91067000  0.97929000  0.39943000  1
  C  C238  1  0.79267000  0.92212000  0.34161000  1
  C  C239  1  0.89373000  0.96649000  0.35574000  1
  C  C240  1  0.56609000  0.79137000  0.38719000  1
  C  C241  1  0.37581000  0.72627000  0.41779000  1
  C  C242  1  0.50532000  0.77404000  0.25188000  1
  C  C243  1  0.47743000  0.88996000  0.25046000  1
  C  C244  1  0.04630000  0.04870000  0.45169000  1
  C  C245  1  0.71096000  0.90849000  0.41426000  1
  C  C246  1  0.54885000  0.77766000  0.29427000  1
  C  C247  1  0.81593000  0.95114000  0.42865000  1
  C  C248  1  0.38279000  0.85280000  0.11894000  1
  C  C249  1  0.42239000  0.77299000  0.38910000  1
  C  C250  1  0.28555000  0.64623000  0.49133000  1
  C  C251  1  0.24637000  0.05810000  0.41765000  1
  C  C252  1  0.61760000  0.71497000  0.44362000  1
  C  C253  1  0.15854000  0.02244000  0.39161000  1
  C  C254  1  0.66441000  0.76082000  0.41396000  1
  C  C255  1  0.40450000  0.56891000  0.51991000  1
  C  C256  1  0.50026000  0.60193000  0.49453000  1
  C  C257  1  0.79817000  0.60956000  0.87068000  1
  C  C258  1  0.97906000  0.70856000  0.65479000  1
  C  C259  1  0.98191000  0.60649000  0.79245000  1
  C  C260  1  0.02626000  0.80260000  0.94554000  1
  C  C261  1  0.94170000  0.66257000  0.81479000  1
  C  C262  1  0.02557000  0.66903000  0.72836000  1
  C  C263  1  0.14032000  0.63119000  0.66004000  1
  C  C264  1  0.59021000  0.52088000  0.89935000  1
  C  C265  1  0.70735000  0.57829000  0.84140000  1
  C  C266  1  0.60678000  0.53372000  0.85565000  1
  C  C267  1  0.93395000  0.70933000  0.88649000  1
  C  C268  1  0.12361000  0.77471000  0.91702000  1
  C  C269  1  0.99343000  0.72551000  0.75099000  1
  C  C270  1  0.02156000  0.60955000  0.74961000  1
  C  C271  1  0.45694000  0.45025000  0.95157000  1
  C  C272  1  0.78917000  0.59222000  0.91390000  1
  C  C273  1  0.95071000  0.72225000  0.79354000  1
  C  C274  1  0.68456000  0.54941000  0.92842000  1
  C  C275  1  0.11501000  0.64568000  0.61782000  1
  C  C276  1  0.07743000  0.72811000  0.88814000  1
  C  C277  1  0.21291000  0.85335000  0.99153000  1
  C  C278  1  0.25725000  0.43962000  0.91784000  1
  C  C279  1  0.88182000  0.78532000  0.94341000  1
  C  C280  1  0.34364000  0.47623000  0.89189000  1
  C  C281  1  0.83543000  0.73971000  0.91351000  1
  C  C282  1  0.09388000  0.93058000  0.02061000  1
  C  C283  1  0.99855000  0.89806000  0.99489000  1
  C  C284  1  0.29919000  0.10815000  0.62983000  1
  C  C285  1  0.47970000  0.20949000  0.84508000  1
  C  C286  1  0.48353000  0.10617000  0.70758000  1
  C  C287  1  0.53375000  0.29963000  0.55428000  1
  C  C288  1  0.44272000  0.16194000  0.68522000  1
  C  C289  1  0.52718000  0.16945000  0.77148000  1
  C  C290  1  0.64238000  0.13266000  0.83977000  1
  C  C291  1  0.09216000  0.01857000  0.60200000  1
  C  C292  1  0.20794000  0.07760000  0.65942000  1
  C  C293  1  0.10779000  0.03261000  0.64557000  1
  C  C294  1  0.43663000  0.20726000  0.61325000  1
  C  C295  1  0.62948000  0.27098000  0.58268000  1
  C  C296  1  0.49445000  0.22562000  0.74878000  1
  C  C297  1  0.52350000  0.10977000  0.75033000  1
  C  C298  1  0.95986000  0.94676000  0.55038000  1
  C  C299  1  0.29111000  0.08967000  0.58676000  1
  C  C300  1  0.45154000  0.22184000  0.70633000  1
  C  C301  1  0.18699000  0.04633000  0.57265000  1
  C  C302  1  0.61642000  0.14752000  0.88200000  1
  C  C303  1  0.58070000  0.22493000  0.61152000  1
  C  C304  1  0.72301000  0.35025000  0.50894000  1
  C  C305  1  0.75929000  0.93704000  0.58412000  1
  C  C306  1  0.38881000  0.28324000  0.55634000  1
  C  C307  1  0.84530000  0.97414000  0.60983000  1
  C  C308  1  0.33995000  0.23796000  0.58606000  1
  C  C309  1  0.60634000  0.42837000  0.48046000  1
  C  C310  1  0.50940000  0.39570000  0.50563000  1
  C  C311  1  0.20209000  0.39025000  0.12969000  1
  C  C312  1  0.02335000  0.28756000  0.34523000  1
  C  C313  1  0.01820000  0.39192000  0.20820000  1
  C  C314  1  0.96477000  0.19891000  0.05463000  1
  C  C315  1  0.05957000  0.33637000  0.18549000  1
  C  C316  1  0.97619000  0.32827000  0.27194000  1
  C  C317  1  0.86166000  0.36485000  0.34064000  1
  C  C318  1  0.40786000  0.48044000  0.10155000  1
  C  C319  1  0.29192000  0.42174000  0.15915000  1
  C  C320  1  0.39133000  0.46704000  0.14517000  1
  C  C321  1  0.06367000  0.29119000  0.11344000  1
  C  C322  1  0.86993000  0.22751000  0.08358000  1
  C  C323  1  0.00942000  0.27227000  0.24892000  1
  C  C324  1  0.97878000  0.38805000  0.25105000  1
  C  C325  1  0.53911000  0.55267000  0.04979000  1
  C  C326  1  0.21148000  0.40787000  0.08651000  1
  C  C327  1  0.05192000  0.27636000  0.20638000  1
  C  C328  1  0.31500000  0.45142000  0.07227000  1
  C  C329  1  0.88725000  0.34962000  0.38274000  1
  C  C330  1  0.91948000  0.27356000  0.11235000  1
  C  C331  1  0.77442000  0.14878000  0.00964000  1
  C  C332  1  0.73870000  0.56376000  0.08354000  1
  C  C333  1  0.10985000  0.21519000  0.05609000  1
  C  C334  1  0.65320000  0.52637000  0.10927000  1
  C  C335  1  0.15951000  0.26034000  0.08580000  1
  C  C336  1  0.88988000  0.07024000  0.98078000  1
  C  C337  1  0.98737000  0.10266000  0.00580000  1
  C  C338  1  0.70361000  0.60394000  0.62801000  1
  C  C339  1  0.51950000  0.70911000  0.84252000  1
  C  C340  1  0.51465000  0.60302000  0.70598000  1
  C  C341  1  0.47268000  0.79618000  0.55344000  1
  C  C342  1  0.55933000  0.65809000  0.68316000  1
  C  C343  1  0.47189000  0.66788000  0.76921000  1
  C  C344  1  0.35130000  0.63362000  0.83767000  1
  C  C345  1  0.91024000  0.51476000  0.60070000  1
  C  C346  1  0.78898000  0.57164000  0.65794000  1
  C  C347  1  0.88883000  0.52686000  0.64431000  1
  C  C348  1  0.56751000  0.70243000  0.61116000  1
  C  C349  1  0.37526000  0.76441000  0.58032000  1
  C  C350  1  0.50852000  0.72338000  0.74603000  1
  C  C351  1  0.47312000  0.60773000  0.74863000  1
  C  C352  1  0.04708000  0.44499000  0.54919000  1
  C  C353  1  0.71773000  0.58752000  0.58468000  1
  C  C354  1  0.55280000  0.71849000  0.70370000  1
  C  C355  1  0.82156000  0.54445000  0.57089000  1
  C  C356  1  0.37670000  0.64927000  0.87979000  1
  C  C357  1  0.42296000  0.71771000  0.60851000  1
  C  C358  1  0.28406000  0.84989000  0.51041000  1
  C  C359  1  0.24284000  0.43405000  0.58471000  1
  C  C360  1  0.61800000  0.78164000  0.55611000  1
  C  C361  1  0.15436000  0.46992000  0.61024000  1
  C  C362  1  0.66552000  0.73564000  0.58527000  1
  C  C363  1  0.40395000  0.92841000  0.48254000  1
  C  C364  1  0.50033000  0.89400000  0.50629000  1
  C  C365  1  0.79102000  0.89576000  0.12791000  1
  C  C366  1  0.97655000  0.79047000  0.34165000  1
  C  C367  1  0.98014000  0.89645000  0.20547000  1
  C  C368  1  0.02577000  0.70401000  0.05251000  1
  C  C369  1  0.93511000  0.84145000  0.18259000  1
  C  C370  1  0.02375000  0.83138000  0.26829000  1
  C  C371  1  0.14623000  0.86526000  0.33639000  1
  C  C372  1  0.58425000  0.98492000  0.10128000  1
  C  C373  1  0.70542000  0.92791000  0.15810000  1
  C  C374  1  0.60544000  0.97264000  0.14480000  1
  C  C375  1  0.92793000  0.79751000  0.11038000  1
  C  C376  1  0.12225000  0.73660000  0.07917000  1
  C  C377  1  0.98645000  0.77595000  0.24506000  1
  C  C378  1  0.02230000  0.89160000  0.24797000  1
  C  C379  1  0.44682000  0.05403000  0.05005000  1
  C  C380  1  0.77736000  0.91245000  0.08468000  1
  C  C381  1  0.94159000  0.78100000  0.20288000  1
  C  C382  1  0.67349000  0.95556000  0.07125000  1
  C  C383  1  0.12084000  0.84989000  0.37856000  1
  C  C384  1  0.07298000  0.78321000  0.10740000  1
  C  C385  1  0.21573000  0.65140000  0.00878000  1
  C  C386  1  0.24982000  0.06386000  0.08548000  1
  C  C387  1  0.88000000  0.71771000  0.05543000  1
  C  C388  1  0.33886000  0.02867000  0.11103000  1
  C  C389  1  0.83085000  0.76360000  0.08465000  1
  C  C390  1  0.09792000  0.57194000  0.98126000  1
  C  C391  1  0.00097000  0.60564000  0.00551000  1
  N  N392  1  0.39672000  0.33943000  0.35806000  1
  N  N393  1  0.51863000  0.30386000  0.11553000  1
  N  N394  1  0.98265000  0.51716000  0.41321000  1
  N  N395  1  0.83793000  0.57619000  0.45431000  1
  N  N396  1  0.55766000  0.32639000  0.18445000  1
  N  N397  1  0.58528000  0.15241000  0.47606000  1
  N  N398  1  0.73849000  0.09756000  0.51672000  1
  N  N399  1  0.10375000  0.15940000  0.85801000  1
  N  N400  1  0.98568000  0.19715000  0.61584000  1
  N  N401  1  0.51450000  0.98084000  0.91283000  1
  N  N402  1  0.65827000  0.92232000  0.95414000  1
  N  N403  1  0.94430000  0.17478000  0.68469000  1
  N  N404  1  0.91844000  0.34783000  0.97634000  1
  N  N405  1  0.76591000  0.40320000  0.01736000  1
  N  N406  1  0.60798000  0.84094000  0.35791000  1
  N  N407  1  0.48274000  0.80425000  0.11596000  1
  N  N408  1  0.02957000  0.01652000  0.41341000  1
  N  N409  1  0.17601000  0.07425000  0.45501000  1
  N  N410  1  0.44433000  0.82712000  0.18485000  1
  N  N411  1  0.42310000  0.65165000  0.47599000  1
  N  N412  1  0.27101000  0.59684000  0.51787000  1
  N  N413  1  0.89232000  0.65945000  0.85735000  1
  N  N414  1  0.01505000  0.69421000  0.61499000  1
  N  N415  1  0.47235000  0.48297000  0.91348000  1
  N  N416  1  0.32823000  0.42364000  0.95496000  1
  N  N417  1  0.05332000  0.67182000  0.68383000  1
  N  N418  1  0.07578000  0.84842000  0.97601000  1
  N  N419  1  0.22717000  0.90239000  0.01847000  1
  N  N420  1  0.39285000  0.15837000  0.64278000  1
  N  N421  1  0.51544000  0.19565000  0.88487000  1
  N  N422  1  0.97458000  0.98025000  0.58824000  1
  N  N423  1  0.83108000  0.92021000  0.54712000  1
  N  N424  1  0.55495000  0.17278000  0.81598000  1
  N  N425  1  0.58514000  0.34547000  0.52414000  1
  N  N426  1  0.73912000  0.39973000  0.48256000  1
  N  N427  1  0.10839000  0.34015000  0.14285000  1
  N  N428  1  0.98758000  0.30119000  0.38515000  1
  N  N429  1  0.52454000  0.51935000  0.08768000  1
  N  N430  1  0.66723000  0.57991000  0.04652000  1
  N  N431  1  0.94870000  0.32470000  0.31646000  1
  N  N432  1  0.91243000  0.15316000  0.02454000  1
  N  N433  1  0.75755000  0.09931000  0.98318000  1
  N  N434  1  0.61003000  0.65368000  0.64074000  1
  N  N435  1  0.48111000  0.69655000  0.88237000  1
  N  N436  1  0.02820000  0.47684000  0.58748000  1
  N  N437  1  0.17557000  0.41875000  0.54672000  1
  N  N438  1  0.44273000  0.67237000  0.81364000  1
  N  N439  1  0.42257000  0.84346000  0.52442000  1
  N  N440  1  0.26948000  0.90059000  0.48511000  1
  N  N441  1  0.88425000  0.84591000  0.14030000  1
  N  N442  1  0.01557000  0.80304000  0.38140000  1
  N  N443  1  0.46584000  0.02252000  0.08833000  1
  N  N444  1  0.31761000  0.07944000  0.04754000  1
  N  N445  1  0.05375000  0.82678000  0.31259000  1
  N  N446  1  0.07733000  0.65680000  0.02342000  1
  N  N447  1  0.23142000  0.60078000  0.98331000  1
