# generated using pymatgen
data_ZnH18C29(NO3)2
_symmetry_space_group_name_H-M   'P 1'
_cell_length_a   7.81101000
_cell_length_b   8.92193000
_cell_length_c   26.62208000
_cell_angle_alpha   87.04507000
_cell_angle_beta   86.00225000
_cell_angle_gamma   87.36037000
_symmetry_Int_Tables_number   1
_chemical_formula_structural   ZnH18C29(NO3)2
_chemical_formula_sum   'Zn2 H36 C58 N4 O12'
_cell_volume   1846.61918811
_cell_formula_units_Z   2
loop_
 _symmetry_equiv_pos_site_id
 _symmetry_equiv_pos_as_xyz
  1  'x, y, z'
loop_
 _atom_site_type_symbol
 _atom_site_label
 _atom_site_symmetry_multiplicity
 _atom_site_fract_x
 _atom_site_fract_y
 _atom_site_fract_z
 _atom_site_occupancy
  Zn  Zn0  1  0.69306000  0.51799000  0.49438000  1
  Zn  Zn1  1  0.30694000  0.48201000  0.50562000  1
  H  H2  1  0.54072000  0.76312000  0.35450000  1
  H  H3  1  0.98952000  0.30680000  0.12765000  1
  H  H4  1  0.71792000  0.97718000  0.94233000  1
  H  H5  1  0.02552000  0.28746000  0.03718000  1
  H  H6  1  0.53643000  0.93066000  0.00873000  1
  H  H7  1  0.93986000  0.23383000  0.96436000  1
  H  H8  1  0.08378000  0.32770000  0.57899000  1
  H  H9  1  0.94867000  0.49375000  0.58692000  1
  H  H10  1  0.87436000  0.32749000  0.55805000  1
  H  H11  1  0.91611000  0.67250000  0.42106000  1
  H  H12  1  0.12559000  0.67265000  0.44199000  1
  H  H13  1  0.46556000  0.29835000  0.67569000  1
  H  H14  1  0.05124000  0.50650000  0.41307000  1
  H  H15  1  0.69574000  0.96198000  0.67962000  1
  H  H16  1  0.70071000  0.16532000  0.73380000  1
  H  H17  1  0.51976000  0.16681000  0.81740000  1
  H  H18  1  0.33859000  0.95308000  0.84179000  1
  H  H19  1  0.36214000  0.72939000  0.79050000  1
  H  H20  1  0.72409000  0.17125000  0.28483000  1
  H  H21  1  0.81291000  0.98293000  0.22272000  1
  H  H22  1  0.69497000  0.99989000  0.13909000  1
  H  H23  1  0.46506000  0.19132000  0.11958000  1
  H  H24  1  0.60811000  0.79997000  0.26394000  1
  H  H25  1  0.37527000  0.38260000  0.18104000  1
  H  H26  1  0.22136000  0.92258000  0.44704000  1
  H  H27  1  0.18524000  0.06902000  0.49032000  1
  H  H28  1  0.32583000  0.09367000  0.43301000  1
  H  H29  1  0.78014000  0.07739000  0.55247000  1
  H  H30  1  0.67636000  0.90621000  0.56658000  1
  H  H31  1  0.81538000  0.93126000  0.50905000  1
  H  H32  1  0.54524000  0.35321000  0.76183000  1
  H  H33  1  0.43764000  0.90408000  0.09663000  1
  H  H34  1  0.91286000  0.21675000  0.87493000  1
  H  H35  1  0.51487000  0.76511000  0.63586000  1
  H  H36  1  0.46373000  0.29496000  0.33725000  1
  H  H37  1  0.76930000  0.96511000  0.85135000  1
  C  C38  1  0.45608000  0.79400000  0.50050000  1
  C  C39  1  0.79900000  0.72252000  0.85294000  1
  C  C40  1  0.49526000  0.52695000  0.35131000  1
  C  C41  1  0.51038000  0.52522000  0.64752000  1
  C  C42  1  0.75883000  0.73620000  0.95803000  1
  C  C43  1  0.86289000  0.48578000  0.01928000  1
  C  C44  1  0.86584000  0.47280000  0.96647000  1
  C  C45  1  0.70978000  0.73207000  0.00993000  1
  C  C46  1  0.81696000  0.60054000  0.93620000  1
  C  C47  1  0.76928000  0.60931000  0.04071000  1
  C  C48  1  0.74698000  0.86854000  0.92678000  1
  C  C49  1  0.54397000  0.20601000  0.49950000  1
  C  C50  1  0.94360000  0.37850000  0.05165000  1
  C  C51  1  0.77729000  0.86235000  0.87461000  1
  C  C52  1  0.92460000  0.39021000  0.10385000  1
  C  C53  1  0.49808000  0.50218000  0.40546000  1
  C  C54  1  0.50241000  0.49987000  0.59451000  1
  C  C55  1  0.59316000  0.83997000  0.03140000  1
  C  C56  1  0.90713000  0.33602000  0.94293000  1
  C  C57  1  0.43686000  0.95551000  0.49330000  1
  C  C58  1  0.56346000  0.04449000  0.50663000  1
  C  C59  1  0.55333000  0.69398000  0.16490000  1
  C  C60  1  0.73028000  0.60772000  0.09313000  1
  C  C61  1  0.80798000  0.44577000  0.81053000  1
  C  C62  1  0.77586000  0.50597000  0.17697000  1
  C  C63  1  0.79619000  0.70696000  0.80117000  1
  C  C64  1  0.52836000  0.42512000  0.26839000  1
  C  C65  1  0.59002000  0.69024000  0.70988000  1
  C  C66  1  0.48879000  0.40580000  0.32045000  1
  C  C67  1  0.53987000  0.66942000  0.66149000  1
  C  C68  1  0.53280000  0.66952000  0.33047000  1
  C  C69  1  0.50777000  0.40774000  0.68400000  1
  C  C70  1  0.57185000  0.69040000  0.27905000  1
  C  C71  1  0.81835000  0.59169000  0.88373000  1
  C  C72  1  0.56637000  0.43248000  0.73123000  1
  C  C73  1  0.57547000  0.56889000  0.24769000  1
  C  C74  1  0.64540000  0.56480000  0.74030000  1
  C  C75  1  0.98259000  0.40016000  0.56165000  1
  C  C76  1  0.01736000  0.60000000  0.43837000  1
  C  C77  1  0.53451000  0.83080000  0.73226000  1
  C  C78  1  0.61257000  0.96106000  0.71398000  1
  C  C79  1  0.61341000  0.07905000  0.74541000  1
  C  C80  1  0.51494000  0.07729000  0.79173000  1
  C  C81  1  0.41493000  0.95513000  0.80625000  1
  C  C82  1  0.60606000  0.71064000  0.11355000  1
  C  C83  1  0.42656000  0.83003000  0.77686000  1
  C  C84  1  0.54397000  0.29161000  0.23734000  1
  C  C85  1  0.66203000  0.17391000  0.24964000  1
  C  C86  1  0.71453000  0.06815000  0.21429000  1
  C  C87  1  0.64626000  0.07664000  0.16716000  1
  C  C88  1  0.51864000  0.18590000  0.15608000  1
  C  C89  1  0.46677000  0.29306000  0.19115000  1
  C  C90  1  0.28396000  0.01415000  0.46449000  1
  C  C91  1  0.71719000  0.98590000  0.53509000  1
  C  C92  1  0.84233000  0.45261000  0.86155000  1
  C  C93  1  0.53486000  0.82428000  0.08200000  1
  C  C94  1  0.89089000  0.32527000  0.89124000  1
  C  C95  1  0.81270000  0.50123000  0.12489000  1
  N  N96  1  0.63696000  0.59088000  0.19560000  1
  N  N97  1  0.75034000  0.57317000  0.78402000  1
  N  N98  1  0.04968000  0.45796000  0.51312000  1
  N  N99  1  0.95032000  0.54204000  0.48688000  1
  O  O100  1  0.61075000  0.73857000  0.49678000  1
  O  O101  1  0.83816000  0.31549000  0.78774000  1
  O  O102  1  0.85317000  0.81749000  0.76909000  1
  O  O103  1  0.87520000  0.42429000  0.20862000  1
  O  O104  1  0.38925000  0.26143000  0.50322000  1
  O  O105  1  0.32161000  0.71163000  0.50519000  1
  O  O106  1  0.67839000  0.28837000  0.49481000  1
  O  O107  1  0.64456000  0.51344000  0.42455000  1
  O  O108  1  0.35544000  0.48656000  0.57545000  1
  O  O109  1  0.35541000  0.48650000  0.43296000  1
  O  O110  1  0.64459000  0.51350000  0.56704000  1
  O  O111  1  0.41875000  0.77864000  0.18379000  1
