# generated using pymatgen
data_Mn3H13C22S3NO13
_symmetry_space_group_name_H-M   'P 1'
_cell_length_a   10.70979000
_cell_length_b   16.47652000
_cell_length_c   22.17296000
_cell_angle_alpha   93.95380000
_cell_angle_beta   90.00000000
_cell_angle_gamma   89.99490000
_symmetry_Int_Tables_number   1
_chemical_formula_structural   Mn3H13C22S3NO13
_chemical_formula_sum   'Mn12 H52 C88 S12 N4 O52'
_cell_volume   3903.32984726
_cell_formula_units_Z   4
loop_
 _symmetry_equiv_pos_site_id
 _symmetry_equiv_pos_as_xyz
  1  'x, y, z'
loop_
 _atom_site_type_symbol
 _atom_site_label
 _atom_site_symmetry_multiplicity
 _atom_site_fract_x
 _atom_site_fract_y
 _atom_site_fract_z
 _atom_site_occupancy
  Mn  Mn0  1  0.66543000  0.73571000  0.13529000  1
  Mn  Mn1  1  0.72735000  0.75858000  0.96176000  1
  Mn  Mn2  1  0.91376000  0.77992000  0.81475000  1
  Mn  Mn3  1  0.16527000  0.26435000  0.36473000  1
  Mn  Mn4  1  0.22728000  0.24138000  0.53826000  1
  Mn  Mn5  1  0.41400000  0.22007000  0.68530000  1
  Mn  Mn6  1  0.33456000  0.26430000  0.86471000  1
  Mn  Mn7  1  0.27264000  0.24142000  0.03824000  1
  Mn  Mn8  1  0.08623000  0.22008000  0.18525000  1
  Mn  Mn9  1  0.83473000  0.73565000  0.63526000  1
  Mn  Mn10  1  0.77271000  0.75863000  0.46173000  1
  Mn  Mn11  1  0.58599000  0.77993000  0.31469000  1
  H  H12  1  0.75405000  0.54627000  0.14132000  1
  H  H13  1  0.90886000  0.56099000  0.11733000  1
  H  H14  1  0.69638000  0.42775000  0.98874000  1
  H  H15  1  0.85318000  0.45043000  0.97126000  1
  H  H16  1  0.74778000  0.41437000  0.09076000  1
  H  H17  1  0.90647000  0.42375000  0.07183000  1
  H  H18  1  0.71357000  0.57969000  0.96589000  1
  H  H19  1  0.78623000  0.56234000  0.74319000  1
  H  H20  1  0.38057000  0.07520000  0.91282000  1
  H  H21  1  0.04148000  0.73953000  0.06989000  1
  H  H22  1  0.67749000  0.42052000  0.70785000  1
  H  H23  1  0.52685000  0.96182000  0.95545000  1
  H  H24  1  0.27198000  0.74684000  0.11663000  1
  H  H25  1  0.25392000  0.45374000  0.35865000  1
  H  H26  1  0.40876000  0.43900000  0.38260000  1
  H  H27  1  0.19628000  0.57227000  0.51119000  1
  H  H28  1  0.35311000  0.54968000  0.52866000  1
  H  H29  1  0.24770000  0.58568000  0.40918000  1
  H  H30  1  0.40641000  0.57624000  0.42809000  1
  H  H31  1  0.21363000  0.42035000  0.53408000  1
  H  H32  1  0.28615000  0.43759000  0.75687000  1
  H  H33  1  0.88059000  0.92471000  0.58719000  1
  H  H34  1  0.54139000  0.26022000  0.43015000  1
  H  H35  1  0.17742000  0.57941000  0.79227000  1
  H  H36  1  0.02688000  0.03816000  0.54459000  1
  H  H37  1  0.77177000  0.25317000  0.38336000  1
  H  H38  1  0.24594000  0.45373000  0.85868000  1
  H  H39  1  0.09113000  0.43901000  0.88267000  1
  H  H40  1  0.30362000  0.57225000  0.01125000  1
  H  H41  1  0.14682000  0.54957000  0.02873000  1
  H  H42  1  0.25221000  0.58563000  0.90924000  1
  H  H43  1  0.09353000  0.57625000  0.92817000  1
  H  H44  1  0.28642000  0.42032000  0.03410000  1
  H  H45  1  0.21377000  0.43767000  0.25681000  1
  H  H46  1  0.61942000  0.92481000  0.08718000  1
  H  H47  1  0.95852000  0.26048000  0.93010000  1
  H  H48  1  0.32250000  0.57948000  0.29215000  1
  H  H49  1  0.47314000  0.03819000  0.04455000  1
  H  H50  1  0.72802000  0.25317000  0.88336000  1
  H  H51  1  0.74607000  0.54626000  0.64135000  1
  H  H52  1  0.59123000  0.56100000  0.61740000  1
  H  H53  1  0.80372000  0.42773000  0.48881000  1
  H  H54  1  0.64689000  0.45033000  0.47133000  1
  H  H55  1  0.75229000  0.41433000  0.59081000  1
  H  H56  1  0.59358000  0.42377000  0.57191000  1
  H  H57  1  0.78636000  0.57965000  0.46592000  1
  H  H58  1  0.71384000  0.56242000  0.24313000  1
  H  H59  1  0.11940000  0.07530000  0.41280000  1
  H  H60  1  0.45861000  0.73978000  0.56985000  1
  H  H61  1  0.82257000  0.42060000  0.20773000  1
  H  H62  1  0.97312000  0.96184000  0.45541000  1
  H  H63  1  0.22823000  0.74683000  0.61663000  1
  C  C64  1  0.81614000  0.53984000  0.10192000  1
  C  C65  1  0.77709000  0.46511000  0.00334000  1
  C  C66  1  0.81537000  0.45363000  0.06982000  1
  C  C67  1  0.76830000  0.59462000  0.05545000  1
  C  C68  1  0.71510000  0.53167000  0.76798000  1
  C  C69  1  0.45912000  0.04666000  0.88876000  1
  C  C70  1  0.12720000  0.74746000  0.04483000  1
  C  C71  1  0.67016000  0.56414000  0.82321000  1
  C  C72  1  0.65733000  0.45750000  0.74916000  1
  C  C73  1  0.53685000  0.98714000  0.91177000  1
  C  C74  1  0.71011000  0.64050000  0.85569000  1
  C  C75  1  0.62967000  0.96097000  0.87104000  1
  C  C76  1  0.24827000  0.75129000  0.06935000  1
  C  C77  1  0.01511000  0.75265000  0.94357000  1
  C  C78  1  0.48511000  0.36307000  0.78286000  1
  C  C79  1  0.56711000  0.43471000  0.78967000  1
  C  C80  1  0.33899000  0.76197000  0.02562000  1
  C  C81  1  0.44091000  0.12540000  0.79207000  1
  C  C82  1  0.72330000  0.89684000  0.87774000  1
  C  C83  1  0.12650000  0.75554000  0.98281000  1
  C  C84  1  0.47430000  0.76482000  0.03686000  1
  C  C85  1  0.49431000  0.06560000  0.83090000  1
  C  C86  1  0.31605000  0.46017000  0.39802000  1
  C  C87  1  0.27704000  0.53493000  0.49660000  1
  C  C88  1  0.31529000  0.54640000  0.43011000  1
  C  C89  1  0.26831000  0.40539000  0.44451000  1
  C  C90  1  0.21513000  0.46832000  0.73204000  1
  C  C91  1  0.95913000  0.95327000  0.61125000  1
  C  C92  1  0.62708000  0.25231000  0.45521000  1
  C  C93  1  0.17028000  0.43595000  0.67676000  1
  C  C94  1  0.15735000  0.54250000  0.75091000  1
  C  C95  1  0.03688000  0.01279000  0.58824000  1
  C  C96  1  0.21032000  0.35957000  0.64426000  1
  C  C97  1  0.12967000  0.03897000  0.62897000  1
  C  C98  1  0.74811000  0.24869000  0.43065000  1
  C  C99  1  0.51507000  0.24694000  0.55643000  1
  C  C100  1  0.98496000  0.63692000  0.71728000  1
  C  C101  1  0.06715000  0.56538000  0.71042000  1
  C  C102  1  0.83890000  0.23807000  0.47436000  1
  C  C103  1  0.94089000  0.87459000  0.70793000  1
  C  C104  1  0.22316000  0.10316000  0.62230000  1
  C  C105  1  0.62645000  0.24416000  0.51721000  1
  C  C106  1  0.97423000  0.23520000  0.46316000  1
  C  C107  1  0.99433000  0.93437000  0.66911000  1
  C  C108  1  0.18386000  0.46016000  0.89807000  1
  C  C109  1  0.22290000  0.53489000  0.99666000  1
  C  C110  1  0.18462000  0.54638000  0.93018000  1
  C  C111  1  0.23169000  0.40539000  0.94454000  1
  C  C112  1  0.28489000  0.46833000  0.23202000  1
  C  C113  1  0.54087000  0.95334000  0.11124000  1
  C  C114  1  0.87279000  0.25254000  0.95517000  1
  C  C115  1  0.32983000  0.43586000  0.17679000  1
  C  C116  1  0.34267000  0.54251000  0.25084000  1
  C  C117  1  0.46314000  0.01286000  0.08822000  1
  C  C118  1  0.28989000  0.35951000  0.14430000  1
  C  C119  1  0.37032000  0.03904000  0.12896000  1
  C  C120  1  0.75173000  0.24871000  0.93065000  1
  C  C121  1  0.98488000  0.24735000  0.05643000  1
  C  C122  1  0.51489000  0.63694000  0.21714000  1
  C  C123  1  0.43289000  0.56530000  0.21033000  1
  C  C124  1  0.66100000  0.23803000  0.97437000  1
  C  C125  1  0.55908000  0.87460000  0.20793000  1
  C  C126  1  0.27669000  0.10316000  0.12226000  1
  C  C127  1  0.87349000  0.24446000  0.01719000  1
  C  C128  1  0.52569000  0.23518000  0.96314000  1
  C  C129  1  0.50569000  0.93440000  0.16910000  1
  C  C130  1  0.68394000  0.53983000  0.60197000  1
  C  C131  1  0.72296000  0.46507000  0.50340000  1
  C  C132  1  0.68470000  0.45360000  0.56989000  1
  C  C133  1  0.73168000  0.59461000  0.55548000  1
  C  C134  1  0.78486000  0.53168000  0.26796000  1
  C  C135  1  0.04086000  0.04673000  0.38875000  1
  C  C136  1  0.37291000  0.74769000  0.54479000  1
  C  C137  1  0.82971000  0.56405000  0.32324000  1
  C  C138  1  0.84264000  0.45751000  0.24909000  1
  C  C139  1  0.96311000  0.98722000  0.41176000  1
  C  C140  1  0.78968000  0.64044000  0.35573000  1
  C  C141  1  0.87033000  0.96103000  0.37102000  1
  C  C142  1  0.25188000  0.75131000  0.56934000  1
  C  C143  1  0.48493000  0.75307000  0.44356000  1
  C  C144  1  0.01503000  0.36308000  0.28272000  1
  C  C145  1  0.93284000  0.43462000  0.28957000  1
  C  C146  1  0.16109000  0.76193000  0.52564000  1
  C  C147  1  0.05910000  0.12542000  0.29207000  1
  C  C148  1  0.77683000  0.89685000  0.37769000  1
  C  C149  1  0.37355000  0.75585000  0.48278000  1
  C  C150  1  0.02576000  0.76481000  0.53684000  1
  C  C151  1  0.00566000  0.06563000  0.33089000  1
  S  S152  1  0.55496000  0.50382000  0.85173000  1
  S  S153  1  0.62186000  0.00942000  0.80467000  1
  S  S154  1  0.27507000  0.76891000  0.95458000  1
  S  S155  1  0.05509000  0.49640000  0.64829000  1
  S  S156  1  0.12189000  0.99055000  0.69534000  1
  S  S157  1  0.77505000  0.23096000  0.54539000  1
  S  S158  1  0.44503000  0.49618000  0.14827000  1
  S  S159  1  0.37813000  0.99058000  0.19532000  1
  S  S160  1  0.72492000  0.23110000  0.04541000  1
  S  S161  1  0.94490000  0.50360000  0.35170000  1
  S  S162  1  0.87810000  0.00946000  0.30465000  1
  S  S163  1  0.22494000  0.76905000  0.45461000  1
  N  N164  1  0.74571000  0.55177000  0.00348000  1
  N  N165  1  0.24580000  0.44825000  0.49649000  1
  N  N166  1  0.25428000  0.44824000  0.99651000  1
  N  N167  1  0.75419000  0.55175000  0.50351000  1
  O  O168  1  0.67548000  0.65136000  0.91186000  1
  O  O169  1  0.77297000  0.69049000  0.82761000  1
  O  O170  1  0.54910000  0.77779000  0.99379000  1
  O  O171  1  0.91258000  0.73454000  0.96942000  1
  O  O172  1  0.39381000  0.36129000  0.82117000  1
  O  O173  1  0.34159000  0.16585000  0.81000000  1
  O  O174  1  0.03041000  0.76625000  0.88818000  1
  O  O175  1  0.49427000  0.13494000  0.74210000  1
  O  O176  1  0.78474000  0.87297000  0.83076000  1
  O  O177  1  0.73647000  0.86944000  0.93027000  1
  O  O178  1  0.50592000  0.75343000  0.09113000  1
  O  O179  1  0.50801000  0.31027000  0.74045000  1
  O  O180  1  0.75113000  0.67123000  0.06359000  1
  O  O181  1  0.17548000  0.34861000  0.58813000  1
  O  O182  1  0.27350000  0.30967000  0.67231000  1
  O  O183  1  0.04906000  0.22222000  0.50621000  1
  O  O184  1  0.41253000  0.26489000  0.53054000  1
  O  O185  1  0.89391000  0.63883000  0.67887000  1
  O  O186  1  0.84161000  0.83412000  0.69001000  1
  O  O187  1  0.53042000  0.23367000  0.61187000  1
  O  O188  1  0.99431000  0.86504000  0.75790000  1
  O  O189  1  0.28428000  0.12717000  0.66934000  1
  O  O190  1  0.23638000  0.13050000  0.56975000  1
  O  O191  1  0.00592000  0.24656000  0.40890000  1
  O  O192  1  0.00752000  0.68942000  0.75997000  1
  O  O193  1  0.25125000  0.32877000  0.43640000  1
  O  O194  1  0.32452000  0.34864000  0.08814000  1
  O  O195  1  0.22702000  0.30952000  0.17239000  1
  O  O196  1  0.45089000  0.22221000  0.00621000  1
  O  O197  1  0.08741000  0.26546000  0.03058000  1
  O  O198  1  0.60618000  0.63871000  0.17883000  1
  O  O199  1  0.65840000  0.83416000  0.19000000  1
  O  O200  1  0.96959000  0.23375000  0.11182000  1
  O  O201  1  0.50572000  0.86506000  0.25790000  1
  O  O202  1  0.21525000  0.12704000  0.16924000  1
  O  O203  1  0.26353000  0.13057000  0.06973000  1
  O  O204  1  0.49407000  0.24658000  0.90887000  1
  O  O205  1  0.49198000  0.68973000  0.25954000  1
  O  O206  1  0.24887000  0.32878000  0.93641000  1
  O  O207  1  0.82452000  0.65139000  0.41186000  1
  O  O208  1  0.72650000  0.69033000  0.32769000  1
  O  O209  1  0.95093000  0.77778000  0.49378000  1
  O  O210  1  0.58747000  0.73512000  0.46946000  1
  O  O211  1  0.10608000  0.36118000  0.32113000  1
  O  O212  1  0.15839000  0.16588000  0.30998000  1
  O  O213  1  0.46957000  0.76633000  0.38812000  1
  O  O214  1  0.00569000  0.13497000  0.24210000  1
  O  O215  1  0.71571000  0.87283000  0.33066000  1
  O  O216  1  0.76361000  0.86950000  0.43025000  1
  O  O217  1  0.99407000  0.75345000  0.59110000  1
  O  O218  1  0.99247000  0.31059000  0.24003000  1
  O  O219  1  0.74874000  0.67123000  0.56360000  1
