# generated using pymatgen
data_H2C4N
_symmetry_space_group_name_H-M   'P 1'
_cell_length_a   9.86113333
_cell_length_b   39.32715000
_cell_length_c   39.32710000
_cell_angle_alpha   119.99987383
_cell_angle_beta   90.00000000
_cell_angle_gamma   90.00000000
_symmetry_Int_Tables_number   1
_chemical_formula_structural   H2C4N
_chemical_formula_sum   'H72 C144 N36'
_cell_volume   13208.16276068
_cell_formula_units_Z   36
loop_
 _symmetry_equiv_pos_site_id
 _symmetry_equiv_pos_as_xyz
  1  'x, y, z'
loop_
 _atom_site_type_symbol
 _atom_site_label
 _atom_site_symmetry_multiplicity
 _atom_site_fract_x
 _atom_site_fract_y
 _atom_site_fract_z
 _atom_site_occupancy
  C  1  1  0.97626000  0.85545600  0.36805700  1
  C  2  1  0.97738600  0.89433000  0.37512900  1
  C  3  1  0.97964300  0.90225000  0.34382200  1
  C  4  1  0.98095200  0.87039000  0.30476300  1
  C  5  1  0.97963000  0.83112200  0.29708200  1
  C  6  1  0.97722900  0.82401800  0.32898500  1
  C  10  1  0.97626400  0.47624200  0.13043800  1
  C  11  1  0.97741000  0.44443800  0.09157000  1
  C  12  1  0.97966400  0.40521200  0.08366100  1
  C  13  1  0.98095900  0.39802600  0.11552800  1
  C  14  1  0.97961600  0.42962100  0.15479300  1
  C  15  1  0.97721700  0.46862200  0.16188400  1
  C  19  1  0.97633600  0.61785800  0.50966500  1
  C  20  1  0.97749700  0.61079400  0.54146900  1
  C  21  1  0.97973200  0.64210700  0.58069500  1
  C  22  1  0.98096500  0.68116400  0.58788300  1
  C  23  1  0.97964000  0.68883400  0.55628800  1
  C  24  1  0.97725900  0.65692600  0.51728700  1
  C  28  1  0.97629500  0.11091100  0.63740000  1
  C  29  1  0.97736900  0.07203800  0.63031600  1
  C  30  1  0.97961600  0.06410300  0.66161400  1
  C  31  1  0.98090500  0.09595600  0.70067800  1
  C  32  1  0.97964600  0.13522900  0.70837000  1
  C  33  1  0.97730000  0.14234300  0.67647400  1
  C  37  1  0.97625600  0.49013700  0.87501000  1
  C  38  1  0.97731900  0.52193300  0.91388200  1
  C  39  1  0.97959700  0.56116200  0.92180600  1
  C  40  1  0.98093100  0.56836400  0.88994500  1
  C  41  1  0.97966100  0.53677600  0.85067600  1
  C  42  1  0.97729000  0.49777000  0.84357100  1
  C  46  1  0.97629100  0.34853900  0.49578700  1
  C  47  1  0.97735000  0.35559400  0.46397500  1
  C  48  1  0.97958900  0.32427600  0.42475300  1
  C  49  1  0.98089400  0.28522400  0.41757200  1
  C  50  1  0.97964000  0.27755900  0.44917000  1
  C  51  1  0.97730800  0.30947200  0.48817000  1
  C  55  1  0.98121500  0.49013500  0.63737500  1
  C  56  1  0.98018800  0.52194800  0.63032300  1
  C  57  1  0.97822700  0.56117100  0.66164600  1
  C  58  1  0.97718300  0.56834800  0.70069800  1
  C  59  1  0.97829800  0.53674500  0.70835700  1
  C  60  1  0.98037700  0.49774600  0.67643900  1
  C  64  1  0.98112400  0.34852500  0.87499000  1
  C  65  1  0.98025500  0.35559900  0.91386300  1
  C  66  1  0.97832400  0.32429300  0.92178600  1
  C  67  1  0.97727000  0.28523300  0.88992900  1
  C  68  1  0.97821200  0.27754900  0.85065800  1
  C  69  1  0.98018800  0.30945200  0.84355100  1
  C  73  1  0.98113400  0.11092900  0.49581000  1
  C  74  1  0.98025200  0.07205600  0.46401600  1
  C  75  1  0.97829300  0.06412900  0.42478400  1
  C  76  1  0.97722800  0.09598500  0.41757800  1
  C  77  1  0.97818700  0.13525800  0.44916700  1
  C  78  1  0.98020700  0.14236300  0.48817300  1
  C  82  1  0.98116900  0.47625900  0.36806900  1
  C  83  1  0.98030900  0.44445200  0.37512700  1
  C  84  1  0.97836400  0.40522700  0.34381200  1
  C  85  1  0.97727400  0.39803700  0.30475600  1
  C  86  1  0.97822300  0.42963600  0.29709000  1
  C  87  1  0.98021100  0.46863800  0.32900100  1
  C  91  1  0.98116100  0.61784000  0.13043500  1
  C  92  1  0.98031700  0.61078000  0.09156800  1
  C  93  1  0.97837400  0.64209700  0.08365800  1
  C  94  1  0.97728300  0.68115400  0.11552700  1
  C  95  1  0.97821700  0.68881800  0.15479300  1
  C  96  1  0.98019800  0.65690600  0.16188200  1
  C  100  1  0.98119900  0.85547000  0.50966000  1
  C  101  1  0.98031300  0.89434400  0.54145500  1
  C  102  1  0.97835800  0.90227300  0.58068700  1
  C  103  1  0.97726800  0.87041800  0.58789700  1
  C  104  1  0.97824200  0.83114600  0.55631200  1
  C  105  1  0.98024500  0.82403600  0.51730100  1
  C  109  1  0.85552800  0.74644300  0.20624300  1
  C  111  1  0.98087300  0.79870500  0.25832900  1
  C  112  1  0.10247000  0.77971600  0.23940700  1
  C  114  1  0.97713800  0.72756500  0.18722700  1
  C  117  1  0.85549800  0.42344900  0.23946500  1
  C  119  1  0.98081600  0.42330400  0.18722400  1
  C  120  1  0.10244100  0.42335100  0.20618900  1
  C  122  1  0.97713100  0.42332100  0.25834300  1
  C  125  1  0.85553800  0.77968000  0.56246200  1
  C  127  1  0.98082700  0.72758300  0.56260800  1
  C  128  1  0.10244500  0.74651200  0.56258400  1
  C  130  1  0.97714200  0.79873700  0.56265700  1
  C  133  1  0.85556800  0.21991900  0.79921700  1
  C  135  1  0.98085700  0.16763300  0.74712800  1
  C  136  1  0.10245200  0.18663800  0.76603600  1
  C  138  1  0.97718700  0.23879900  0.81824100  1
  C  141  1  0.85564000  0.54291600  0.76598000  1
  C  143  1  0.98093500  0.54311000  0.81825900  1
  C  144  1  0.10254100  0.54303200  0.79927000  1
  C  146  1  0.97726000  0.54306100  0.74710400  1
  C  149  1  0.85555900  0.18671900  0.44300900  1
  C  151  1  0.98088800  0.23881200  0.44284400  1
  C  152  1  0.10248100  0.21988300  0.44289400  1
  C  154  1  0.97716800  0.16767800  0.44283500  1
  C  157  1  0.10273500  0.84893800  0.45196300  1
  C  159  1  0.97576300  0.84892200  0.40019500  1
  C  160  1  0.85445800  0.84889800  0.41920900  1
  C  162  1  0.98141500  0.84894100  0.47098900  1
  C  165  1  0.10271900  0.56666400  0.13694500  1
  C  167  1  0.97575700  0.51491200  0.13696300  1
  C  168  1  0.85444400  0.53394800  0.13699100  1
  C  170  1  0.98138800  0.58568600  0.13694400  1
  C  173  1  0.10275300  0.53394100  0.41923800  1
  C  175  1  0.97581800  0.58571300  0.47099500  1
  C  176  1  0.85449400  0.56671000  0.45196300  1
  C  178  1  0.98141500  0.51492400  0.40022100  1
  C  181  1  0.10280400  0.11746700  0.55352000  1
  C  183  1  0.97580700  0.11745600  0.60527000  1
  C  184  1  0.85451600  0.11745100  0.58623600  1
  C  186  1  0.98151900  0.11746800  0.53448300  1
  C  189  1  0.10271500  0.39970100  0.86847400  1
  C  191  1  0.97575700  0.45146200  0.86847400  1
  C  192  1  0.85445400  0.43242700  0.86845300  1
  C  194  1  0.98141200  0.38066200  0.86845800  1
  C  197  1  0.10283100  0.43243100  0.58622200  1
  C  199  1  0.97585400  0.38069600  0.53445200  1
  C  200  1  0.85452400  0.39970700  0.55347500  1
  C  202  1  0.98149300  0.45147200  0.60521200  1
  C  205  1  0.85586100  0.00242700  0.38335600  1
  C  207  1  0.98102300  0.94203100  0.35320900  1
  C  208  1  0.10258700  0.96394600  0.36384600  1
  C  210  1  0.97748100  0.02434100  0.39439800  1
  C  213  1  0.85588800  0.34456500  0.98348700  1
  C  215  1  0.98104600  0.37481300  0.04388400  1
  C  216  1  0.10261200  0.36353400  0.02197000  1
  C  218  1  0.97750800  0.33369300  0.96157300  1
  C  221  1  0.85564800  0.60272000  0.64143200  1
  C  223  1  0.98105600  0.63273100  0.61109500  1
  C  224  1  0.10250200  0.62196800  0.62229700  1
  C  226  1  0.97706700  0.59157300  0.65227900  1
  C  229  1  0.85572100  0.96394100  0.62217700  1
  C  231  1  0.98087600  0.02431100  0.65220800  1
  C  232  1  0.10253000  0.00243300  0.64154300  1
  C  234  1  0.97740000  0.94206800  0.61107100  1
  C  237  1  0.85584300  0.62187400  0.02198200  1
  C  239  1  0.98086700  0.59155700  0.96159600  1
  C  240  1  0.10254000  0.60280700  0.98345700  1
  C  242  1  0.97752200  0.63270500  0.04387400  1
  C  245  1  0.85586200  0.36377000  0.36402900  1
  C  247  1  0.98088000  0.33364300  0.39435200  1
  C  248  1  0.10246000  0.34432200  0.38310800  1
  C  250  1  0.97751700  0.37483300  0.35320300  1
  H  7  1  0.98275000  0.87581700  0.28187400  1
  H  8  1  0.97672100  0.79574200  0.32378100  1
  H  9  1  0.97694900  0.91721100  0.40354800  1
  H  16  1  0.98273600  0.36971100  0.11010900  1
  H  17  1  0.97668500  0.49170200  0.19015800  1
  H  18  1  0.97698000  0.44996300  0.06868200  1
  H  25  1  0.98271600  0.70405900  0.61619800  1
  H  26  1  0.97672600  0.66212000  0.49420800  1
  H  27  1  0.97708700  0.58237700  0.53594200  1
  H  34  1  0.98264500  0.09051700  0.72356100  1
  H  35  1  0.97681200  0.17062300  0.68168800  1
  H  36  1  0.97691400  0.04915800  0.60189300  1
  H  43  1  0.98270600  0.59668000  0.89537400  1
  H  44  1  0.97680700  0.47469700  0.81529600  1
  H  45  1  0.97685200  0.51639700  0.93676500  1
  H  52  1  0.98264800  0.26232600  0.38925900  1
  H  53  1  0.97683700  0.30428100  0.51125200  1
  H  54  1  0.97690300  0.38400800  0.46949800  1
  H  61  1  0.97565200  0.59666200  0.72360100  1
  H  62  1  0.98082000  0.47466000  0.68162400  1
  H  63  1  0.98052200  0.51642900  0.60191100  1
  H  70  1  0.97585500  0.26234000  0.89535800  1
  H  71  1  0.98054900  0.30424900  0.81527600  1
  H  72  1  0.98069800  0.38402000  0.93674600  1
  H  79  1  0.97579300  0.09055600  0.38925900  1
  H  80  1  0.98058600  0.17064200  0.51124600  1
  H  81  1  0.98071800  0.04917500  0.46955400  1
  H  88  1  0.97583000  0.36972200  0.28185800  1
  H  89  1  0.98053600  0.49172000  0.32380800  1
  H  90  1  0.98075600  0.44997800  0.40354300  1
  H  97  1  0.97584400  0.70405000  0.11011000  1
  H  98  1  0.98051200  0.66209600  0.19015600  1
  H  99  1  0.98074900  0.58236500  0.06867800  1
  H  106  1  0.97578800  0.87585300  0.61621600  1
  H  107  1  0.98058600  0.79575700  0.49423000  1
  H  108  1  0.98071400  0.91722400  0.53591600  1
  H  115  1  0.76318500  0.73386800  0.19541500  1
  H  116  1  0.19480300  0.79060100  0.25195100  1
  H  123  1  0.76316600  0.42518500  0.25204100  1
  H  124  1  0.19476700  0.42501100  0.19529900  1
  H  131  1  0.76320600  0.79050800  0.56070800  1
  H  132  1  0.19477800  0.73396500  0.56092100  1
  H  139  1  0.76322700  0.23249900  0.81004100  1
  H  140  1  0.19478200  0.17575900  0.75348600  1
  H  147  1  0.76330300  0.54116400  0.75340000  1
  H  148  1  0.19486400  0.54137100  0.81015800  1
  H  155  1  0.76321600  0.17589400  0.44476100  1
  H  156  1  0.19481700  0.23242700  0.44455500  1
  H  163  1  0.19534000  0.85067400  0.46440700  1
  H  164  1  0.76187700  0.85059700  0.40846700  1
  H  171  1  0.19531900  0.57737500  0.13521000  1
  H  172  1  0.76186800  0.52150800  0.13529700  1
  H  179  1  0.19534900  0.52149100  0.40852600  1
  H  180  1  0.76192300  0.57746000  0.46440400  1
  H  187  1  0.19541300  0.11574300  0.54108400  1
  H  188  1  0.76193000  0.11572400  0.59695800  1
  H  195  1  0.19531900  0.38899300  0.87020600  1
  H  196  1  0.76187200  0.44487100  0.87016300  1
  H  203  1  0.19543200  0.44486300  0.59695000  1
  H  204  1  0.76194900  0.38896800  0.54102500  1
  H  211  1  0.76374500  0.01582000  0.39280900  1
  H  212  1  0.19468600  0.95049800  0.35967600  1
  H  219  1  0.76377400  0.34063100  0.97009600  1
  H  220  1  0.19471100  0.37281300  0.03541800  1
  H  227  1  0.76345000  0.59334200  0.64541000  1
  H  228  1  0.19464100  0.62602500  0.61295100  1
  H  235  1  0.76362000  0.95053100  0.61276900  1
  H  236  1  0.19458900  0.01589500  0.64567700  1
  H  243  1  0.76375300  0.62585400  0.03539600  1
  H  244  1  0.19459800  0.59349600  0.96998900  1
  H  251  1  0.76375900  0.37320700  0.36006500  1
  H  252  1  0.19453900  0.34017600  0.39241700  1
  N  110  1  0.86213000  0.78065000  0.24112500  1
  N  113  1  0.09589500  0.74482300  0.20521000  1
  N  118  1  0.86206900  0.42413200  0.20526100  1
  N  121  1  0.09588400  0.42404700  0.24108200  1
  N  126  1  0.86209400  0.74478700  0.56176300  1
  N  129  1  0.09585800  0.78072000  0.56191000  1
  N  134  1  0.86215600  0.18571100  0.76434000  1
  N  137  1  0.09589900  0.22153300  0.80023200  1
  N  142  1  0.86221200  0.54224800  0.80019100  1
  N  145  1  0.09598100  0.54233000  0.76437400  1
  N  150  1  0.86215000  0.22160500  0.44369500  1
  N  153  1  0.09590000  0.18567900  0.44357500  1
  N  158  1  0.09521900  0.84966000  0.41784200  1
  N  161  1  0.86196700  0.84963000  0.45405600  1
  N  166  1  0.09520900  0.53182100  0.13622300  1
  N  169  1  0.86194700  0.56806500  0.13626200  1
  N  174  1  0.09526100  0.56806100  0.45408300  1
  N  177  1  0.86197800  0.53186400  0.41784500  1
  N  182  1  0.09527100  0.11673700  0.58763600  1
  N  185  1  0.86206900  0.11673200  0.55139600  1
  N  190  1  0.09520900  0.43455000  0.86920500  1
  N  193  1  0.86197700  0.39830400  0.86917000  1
  N  198  1  0.09533100  0.39831200  0.55137800  1
  N  201  1  0.86202800  0.43455500  0.58759200  1
  N  206  1  0.86267800  0.96257300  0.36461300  1
  N  209  1  0.09581900  0.00380000  0.38498500  1
  N  214  1  0.86270200  0.36567500  0.02333900  1
  N  217  1  0.09584700  0.34482200  0.98211800  1
  N  222  1  0.86261500  0.62144500  0.62030600  1
  N  225  1  0.09547300  0.60085300  0.64103100  1
  N  230  1  0.86247500  0.00379700  0.64090800  1
  N  233  1  0.09579700  0.96257700  0.62040800  1
  N  238  1  0.86252400  0.60074300  0.98212700  1
  N  241  1  0.09582800  0.62153300  0.02331200  1
  N  246  1  0.86263600  0.34504000  0.38515100  1
  N  249  1  0.09579600  0.36545000  0.36438500  1
