# generated using pymatgen
data_H14C13N5
_symmetry_space_group_name_H-M   'P 1'
_cell_length_a   24.24385000
_cell_length_b   24.24385000
_cell_length_c   26.62490000
_cell_angle_alpha   90.00000000
_cell_angle_beta   90.00000000
_cell_angle_gamma   120.00000000
_symmetry_Int_Tables_number   1
_chemical_formula_structural   H14C13N5
_chemical_formula_sum   'H168 C156 N60'
_cell_volume   13552.57419659
_cell_formula_units_Z   12
loop_
 _symmetry_equiv_pos_site_id
 _symmetry_equiv_pos_as_xyz
  1  'x, y, z'
loop_
 _atom_site_type_symbol
 _atom_site_label
 _atom_site_symmetry_multiplicity
 _atom_site_fract_x
 _atom_site_fract_y
 _atom_site_fract_z
 _atom_site_occupancy
  C  1  1  0.47779650  0.52317350  0.97996800  1
  C  2  1  0.42158450  0.50996850  0.00588900  1
  C  3  1  0.39717450  0.55181650  0.00405300  1
  C  4  1  0.43044750  0.60805550  0.97557900  1
  C  5  1  0.48668950  0.62309250  0.94874800  1
  C  6  1  0.51077500  0.57988400  0.95047800  1
  C  9  1  0.49908250  0.47799750  0.98516800  1
  C  10  1  0.55429900  0.49022900  0.01338600  1
  C  11  1  0.57285950  0.44268550  0.01471200  1
  C  12  1  0.53496100  0.38413100  0.98945900  1
  C  13  1  0.47948900  0.37101900  0.96282300  1
  C  14  1  0.46258650  0.41872550  0.96078900  1
  C  23  1  0.43654050  0.30687250  0.94080200  1
  C  26  1  0.63022900  0.45106000  0.04270800  1
  C  29  1  0.51936150  0.68525750  0.92100500  1
  C  32  1  0.33736650  0.53616550  0.03130900  1
  C  35  1  0.00111850  0.46786550  0.31289500  1
  C  36  1  0.04428950  0.52391350  0.33892000  1
  C  37  1  0.11049950  0.54802650  0.33713200  1
  C  38  1  0.13325350  0.51459650  0.30862100  1
  C  39  1  0.09188500  0.45851500  0.28168000  1
  C  40  1  0.02464600  0.43476500  0.28332900  1
  C  43  1  0.93470700  0.44683300  0.31814200  1
  C  44  1  0.89152400  0.39150000  0.34615300  1
  C  45  1  0.82552050  0.37330650  0.34762600  1
  C  46  1  0.80517050  0.41170650  0.32278100  1
  C  47  1  0.84773550  0.46731750  0.29639200  1
  C  48  1  0.91221900  0.48380900  0.29414200  1
  C  57  1  0.82687600  0.51077200  0.27485900  1
  C  60  1  0.77632800  0.31585000  0.37541600  1
  C  63  1  0.12114700  0.42559800  0.25396900  1
  C  66  1  0.15481450  0.60768750  0.36448200  1
  C  69  1  0.42243350  0.94404350  0.64628100  1
  C  70  1  0.43566100  0.90109200  0.67226600  1
  C  71  1  0.39382300  0.83482600  0.67051150  1
  C  72  1  0.33756150  0.81179450  0.64205700  1
  C  73  1  0.32249700  0.85293700  0.61516500  1
  C  74  1  0.36570400  0.92023800  0.61680600  1
  C  77  1  0.46762400  0.01051800  0.65139100  1
  C  78  1  0.45540850  0.05360250  0.67948100  1
  C  79  1  0.50297000  0.11970300  0.68071500  1
  C  80  1  0.56158050  0.14023850  0.65558500  1
  C  81  1  0.57470000  0.09777600  0.62912100  1
  C  82  1  0.52694200  0.03319100  0.62710800  1
  C  91  1  0.63889600  0.11886400  0.60724400  1
  C  94  1  0.49460150  0.16883150  0.70850700  1
  C  97  1  0.26030750  0.82337350  0.58745400  1
  C  100  1  0.40949600  0.79073500  0.69784400  1
  C  103  1  0.48204000  0.20151200  0.79286600  1
  C  104  1  0.52586100  0.26719100  0.79842700  1
  C  105  1  0.51076500  0.30521900  0.82945500  1
  C  106  1  0.45095400  0.27490400  0.85419800  1
  C  110  1  0.55599650  0.37433650  0.83561900  1
  C  118  1  0.67538150  0.46428750  0.12715200  1
  C  119  1  0.69737300  0.42062300  0.13309300  1
  C  120  1  0.75061300  0.43614500  0.16411000  1
  C  121  1  0.78009200  0.49622800  0.18845100  1
  C  125  1  0.77466450  0.39109250  0.17058500  1
  C  133  1  0.74420000  0.27022200  0.45970500  1
  C  134  1  0.67864100  0.24864500  0.46573100  1
  C  135  1  0.64068950  0.19538550  0.49665500  1
  C  136  1  0.67095450  0.16543050  0.52078300  1
  C  140  1  0.57169400  0.17181000  0.50327700  1
  C  148  1  0.43575050  0.76692250  0.78067200  1
  C  149  1  0.39694800  0.70122400  0.79055900  1
  C  150  1  0.42091550  0.66877050  0.81939400  1
  C  151  1  0.48441900  0.70449300  0.83726400  1
  C  155  1  0.38085400  0.59973200  0.83009400  1
  C  163  1  0.28712150  0.50983750  0.11406600  1
  C  164  1  0.26012850  0.54856750  0.12389500  1
  C  165  1  0.20360150  0.52449950  0.15260500  1
  C  166  1  0.17583150  0.46097850  0.17043400  1
  C  170  1  0.17450700  0.56447100  0.16322700  1
  C  178  1  0.17859550  0.65778150  0.44730300  1
  C  179  1  0.24429600  0.68469900  0.45718900  1
  C  180  1  0.27674950  0.74116650  0.48597000  1
  C  181  1  0.24101550  0.76894950  0.50381400  1
  C  185  1  0.34579600  0.77019000  0.49664400  1
  C  769  1  0.47779650  0.52317350  0.52926200  1
  C  770  1  0.42158450  0.50996850  0.55518300  1
  C  771  1  0.39717450  0.55181650  0.55334700  1
  C  772  1  0.43044750  0.60805550  0.52487300  1
  C  773  1  0.48668950  0.62309250  0.49804200  1
  C  774  1  0.51077500  0.57988400  0.49977200  1
  C  777  1  0.49908250  0.47799750  0.53446200  1
  C  778  1  0.55429900  0.49022900  0.56268000  1
  C  779  1  0.57285950  0.44268550  0.56400600  1
  C  780  1  0.53496100  0.38413100  0.53875300  1
  C  781  1  0.47948900  0.37101900  0.51211700  1
  C  782  1  0.46258650  0.41872550  0.51008300  1
  C  791  1  0.43654050  0.30687250  0.49009600  1
  C  794  1  0.63022900  0.45106000  0.59200200  1
  C  797  1  0.51936150  0.68525750  0.47029900  1
  C  800  1  0.33736650  0.53616550  0.58060300  1
  C  803  1  0.00111850  0.46786550  0.86218900  1
  C  804  1  0.04428950  0.52391350  0.88821400  1
  C  805  1  0.11049950  0.54802650  0.88642600  1
  C  806  1  0.13325350  0.51459650  0.85791500  1
  C  807  1  0.09188500  0.45851500  0.83097400  1
  C  808  1  0.02464600  0.43476500  0.83262300  1
  C  811  1  0.93470700  0.44683300  0.86743600  1
  C  812  1  0.89152400  0.39150000  0.89544700  1
  C  813  1  0.82552050  0.37330650  0.89692000  1
  C  814  1  0.80517050  0.41170650  0.87207500  1
  C  815  1  0.84773550  0.46731750  0.84568600  1
  C  816  1  0.91221900  0.48380900  0.84343600  1
  C  825  1  0.82687600  0.51077200  0.82415300  1
  C  828  1  0.77632800  0.31585000  0.92471010  1
  C  831  1  0.12114700  0.42559800  0.80326300  1
  C  834  1  0.15481450  0.60768750  0.91377610  1
  C  837  1  0.42243350  0.94404350  0.19557500  1
  C  838  1  0.43566100  0.90109200  0.22156000  1
  C  839  1  0.39382300  0.83482600  0.21980550  1
  C  840  1  0.33756150  0.81179450  0.19135100  1
  C  841  1  0.32249700  0.85293700  0.16445900  1
  C  842  1  0.36570400  0.92023800  0.16610000  1
  C  845  1  0.46762400  0.01051800  0.20068500  1
  C  846  1  0.45540850  0.05360250  0.22877500  1
  C  847  1  0.50297000  0.11970300  0.23000900  1
  C  848  1  0.56158050  0.14023850  0.20487900  1
  C  849  1  0.57470000  0.09777600  0.17841500  1
  C  850  1  0.52694200  0.03319100  0.17640200  1
  C  859  1  0.63889600  0.11886400  0.15653800  1
  C  862  1  0.49460150  0.16883150  0.25780100  1
  C  865  1  0.26030750  0.82337350  0.13674800  1
  C  868  1  0.40949600  0.79073500  0.24713800  1
  C  871  1  0.48204000  0.20151200  0.34216000  1
  C  872  1  0.52586100  0.26719100  0.34772100  1
  C  873  1  0.51076500  0.30521900  0.37874900  1
  C  874  1  0.45095400  0.27490400  0.40349200  1
  C  878  1  0.55599650  0.37433650  0.38491300  1
  C  886  1  0.67538150  0.46428750  0.67644600  1
  C  887  1  0.69737300  0.42062300  0.68238700  1
  C  888  1  0.75061300  0.43614500  0.71340400  1
  C  889  1  0.78009200  0.49622800  0.73774500  1
  C  893  1  0.77466450  0.39109250  0.71987900  1
  C  901  1  0.74420000  0.27022200  0.00899900  1
  C  902  1  0.67864100  0.24864500  0.01502500  1
  C  903  1  0.64068950  0.19538550  0.04594900  1
  C  904  1  0.67095450  0.16543050  0.07007700  1
  C  908  1  0.57169400  0.17181000  0.05257100  1
  C  916  1  0.43575050  0.76692250  0.32996600  1
  C  917  1  0.39694800  0.70122400  0.33985300  1
  C  918  1  0.42091550  0.66877050  0.36868800  1
  C  919  1  0.48441900  0.70449300  0.38655800  1
  C  923  1  0.38085400  0.59973200  0.37938800  1
  C  931  1  0.28712150  0.50983750  0.66336000  1
  C  932  1  0.26012850  0.54856750  0.67318900  1
  C  933  1  0.20360150  0.52449950  0.70189900  1
  C  934  1  0.17583150  0.46097850  0.71972800  1
  C  938  1  0.17450700  0.56447100  0.71252100  1
  C  946  1  0.17859550  0.65778150  0.99659708  1
  C  947  1  0.24429600  0.68469900  0.00648300  1
  C  948  1  0.27674950  0.74116650  0.03526400  1
  C  949  1  0.24101550  0.76894950  0.05310800  1
  C  953  1  0.34579600  0.77019000  0.04593800  1
  H  7  1  0.39793400  0.46918600  0.02686200  1
  H  8  1  0.41286000  0.63861400  0.97420100  1
  H  15  1  0.54704650  0.34933050  0.99142900  1
  H  16  1  0.42209450  0.40951650  0.94175800  1
  H  19  1  0.58024050  0.56244250  0.92402800  1
  H  20  1  0.58860450  0.63038850  0.90478700  1
  H  21  1  0.62568350  0.55618950  0.05846000  1
  H  22  1  0.57504050  0.57813350  0.03982400  1
  H  24  1  0.45217800  0.27319000  0.95130800  1
  H  25  1  0.38952200  0.28868800  0.95767800  1
  H  27  1  0.64061700  0.41310900  0.03371300  1
  H  28  1  0.67165900  0.49552900  0.03039300  1
  H  30  1  0.56950400  0.71062700  0.93182000  1
  H  31  1  0.50121950  0.71651150  0.93278800  1
  H  33  1  0.32368950  0.57222450  0.02431600  1
  H  34  1  0.29930100  0.49097400  0.01647300  1
  H  41  1  0.02730900  0.54765100  0.35996000  1
  H  42  1  0.18136250  0.53194750  0.30729500  1
  H  49  1  0.75838100  0.39993100  0.32493600  1
  H  50  1  0.94364700  0.52439700  0.27528700  1
  H  53  1  0.93764700  0.36573700  0.25669200  1
  H  54  1  0.99703150  0.35703850  0.23745400  1
  H  55  1  0.88569050  0.31962050  0.39082200  1
  H  56  1  0.95835900  0.37009400  0.37226100  1
  H  58  1  0.77768700  0.49543100  0.28557900  1
  H  59  1  0.85605900  0.55760500  0.29193700  1
  H  61  1  0.72807450  0.30578850  0.36650700  1
  H  62  1  0.77910550  0.27436450  0.36284500  1
  H  64  1  0.09601750  0.37540650  0.26464300  1
  H  65  1  0.17042700  0.44335800  0.26590900  1
  H  67  1  0.20450150  0.62113450  0.35755300  1
  H  68  1  0.14795750  0.64593350  0.34967600  1
  H  75  1  0.47645000  0.91827100  0.69324200  1
  H  76  1  0.30700500  0.76364600  0.64074500  1
  H  83  1  0.59641750  0.18711750  0.65753600  1
  H  84  1  0.53614950  0.00184850  0.60816800  1
  H  87  1  0.38311800  0.00707600  0.59021800  1
  H  88  1  0.31516550  0.94744950  0.57104400  1
  H  89  1  0.38956300  0.05916900  0.72458800  1
  H  90  1  0.36755000  0.98652600  0.70604400  1
  H  92  1  0.67263450  0.16813850  0.61782800  1
  H  93  1  0.65691000  0.08992500  0.62420100  1
  H  95  1  0.53244000  0.21712400  0.69925450  1
  H  96  1  0.45003300  0.16561900  0.69626200  1
  H  98  1  0.23495350  0.84818350  0.59820500  1
  H  99  1  0.22905500  0.77401100  0.59932600  1
  H  101  1  0.37344350  0.74098350  0.69090000  1
  H  102  1  0.45468950  0.79784350  0.68303400  1
  H  108  1  0.56863450  0.28677350  0.78012400  1
  H  111  1  0.59976100  0.39009100  0.81419200  1
  H  112  1  0.56885750  0.38511150  0.87510900  1
  H  113  1  0.53399050  0.40158850  0.82273750  1
  H  115  1  0.53577400  0.16323800  0.77543200  1
  H  117  1  0.42950900  0.34528500  0.86983200  1
  H  123  1  0.67421350  0.37766950  0.11504600  1
  H  126  1  0.74679700  0.34720700  0.14926300  1
  H  127  1  0.77249300  0.37840700  0.21011900  1
  H  128  1  0.82396000  0.41314200  0.15779600  1
  H  130  1  0.58339450  0.41023650  0.10969400  1
  H  132  1  0.87207250  0.51830250  0.20377900  1
  H  138  1  0.65910050  0.27216050  0.44785900  1
  H  141  1  0.55594650  0.20004250  0.48215000  1
  H  142  1  0.56132950  0.17388950  0.54286400  1
  H  143  1  0.54411100  0.12259900  0.49035300  1
  H  145  1  0.78270200  0.36237600  0.44264600  1
  H  147  1  0.60051450  0.07371850  0.53625400  1
  H  153  1  0.35141850  0.67758450  0.77691800  1
  H  156  1  0.33316150  0.57966350  0.81412200  1
  H  157  1  0.37592150  0.59192650  0.87057500  1
  H  158  1  0.40292800  0.57393400  0.81422400  1
  H  160  1  0.37343300  0.79638400  0.76741500  1
  H  162  1  0.51165750  0.63812650  0.85076700  1
  H  168  1  0.28201150  0.59411150  0.11028400  1
  H  171  1  0.20214000  0.61219400  0.14731000  1
  H  172  1  0.17147850  0.56933550  0.20370000  1
  H  173  1  0.12668900  0.54236800  0.14724900  1
  H  175  1  0.37891200  0.57224600  0.10092400  1
  H  177  1  0.08210050  0.43355750  0.18362100  1
  H  183  1  0.26794850  0.66281950  0.44355100  1
  H  186  1  0.36587450  0.74255550  0.48070800  1
  H  187  1  0.35363150  0.77313550  0.53712500  1
  H  188  1  0.37156750  0.81803850  0.48072700  1
  H  190  1  0.14909950  0.56598350  0.43406700  1
  H  192  1  0.30735550  0.86261350  0.51715500  1
  H  775  1  0.39793400  0.46918600  0.57615600  1
  H  776  1  0.41286000  0.63861400  0.52349500  1
  H  783  1  0.54704650  0.34933050  0.54072300  1
  H  784  1  0.42209450  0.40951650  0.49105200  1
  H  787  1  0.58024050  0.56244250  0.47332200  1
  H  788  1  0.58860450  0.63038850  0.45408100  1
  H  789  1  0.62568350  0.55618950  0.60775400  1
  H  790  1  0.57504050  0.57813350  0.58911800  1
  H  792  1  0.45217800  0.27319000  0.50060200  1
  H  793  1  0.38952200  0.28868800  0.50697200  1
  H  795  1  0.64061700  0.41310900  0.58300700  1
  H  796  1  0.67165900  0.49552900  0.57968700  1
  H  798  1  0.56950400  0.71062700  0.48111400  1
  H  799  1  0.50121950  0.71651150  0.48208200  1
  H  801  1  0.32368950  0.57222450  0.57361000  1
  H  802  1  0.29930100  0.49097400  0.56576700  1
  H  809  1  0.02730900  0.54765100  0.90925410  1
  H  810  1  0.18136250  0.53194750  0.85658900  1
  H  817  1  0.75838100  0.39993100  0.87423000  1
  H  818  1  0.94364700  0.52439700  0.82458100  1
  H  821  1  0.93764700  0.36573700  0.80598600  1
  H  822  1  0.99703150  0.35703850  0.78674800  1
  H  823  1  0.88569050  0.31962050  0.94011610  1
  H  824  1  0.95835900  0.37009400  0.92155510  1
  H  826  1  0.77768700  0.49543100  0.83487300  1
  H  827  1  0.85605900  0.55760500  0.84123100  1
  H  829  1  0.72807450  0.30578850  0.91580110  1
  H  830  1  0.77910550  0.27436450  0.91213910  1
  H  832  1  0.09601750  0.37540650  0.81393700  1
  H  833  1  0.17042700  0.44335800  0.81520300  1
  H  835  1  0.20450150  0.62113450  0.90684710  1
  H  836  1  0.14795750  0.64593350  0.89897000  1
  H  843  1  0.47645000  0.91827100  0.24253600  1
  H  844  1  0.30700500  0.76364600  0.19003900  1
  H  851  1  0.59641750  0.18711750  0.20683000  1
  H  852  1  0.53614950  0.00184850  0.15746200  1
  H  855  1  0.38311800  0.00707600  0.13951200  1
  H  856  1  0.31516550  0.94744950  0.12033800  1
  H  857  1  0.38956300  0.05916900  0.27388200  1
  H  858  1  0.36755000  0.98652600  0.25533800  1
  H  860  1  0.67263450  0.16813850  0.16712200  1
  H  861  1  0.65691000  0.08992500  0.17349500  1
  H  863  1  0.53244000  0.21712400  0.24854850  1
  H  864  1  0.45003300  0.16561900  0.24555600  1
  H  866  1  0.23495350  0.84818350  0.14749900  1
  H  867  1  0.22905500  0.77401100  0.14862000  1
  H  869  1  0.37344350  0.74098350  0.24019400  1
  H  870  1  0.45468950  0.79784350  0.23232800  1
  H  876  1  0.56863450  0.28677350  0.32941800  1
  H  879  1  0.59976100  0.39009100  0.36348600  1
  H  880  1  0.56885750  0.38511150  0.42440300  1
  H  881  1  0.53399050  0.40158850  0.37203150  1
  H  883  1  0.53577400  0.16323800  0.32472600  1
  H  885  1  0.42950900  0.34528500  0.41912600  1
  H  891  1  0.67421350  0.37766950  0.66434000  1
  H  894  1  0.74679700  0.34720700  0.69855700  1
  H  895  1  0.77249300  0.37840700  0.75941300  1
  H  896  1  0.82396000  0.41314200  0.70709000  1
  H  898  1  0.58339450  0.41023650  0.65898800  1
  H  900  1  0.87207250  0.51830250  0.75307300  1
  H  906  1  0.65910050  0.27216050  0.99715308  1
  H  909  1  0.55594650  0.20004250  0.03144400  1
  H  910  1  0.56132950  0.17388950  0.09215800  1
  H  911  1  0.54411100  0.12259900  0.03964700  1
  H  913  1  0.78270200  0.36237600  0.99194008  1
  H  915  1  0.60051450  0.07371850  0.08554800  1
  H  921  1  0.35141850  0.67758450  0.32621200  1
  H  924  1  0.33316150  0.57966350  0.36341600  1
  H  925  1  0.37592150  0.59192650  0.41986900  1
  H  926  1  0.40292800  0.57393400  0.36351800  1
  H  928  1  0.37343300  0.79638400  0.31670900  1
  H  930  1  0.51165750  0.63812650  0.40006100  1
  H  936  1  0.28201150  0.59411150  0.65957800  1
  H  939  1  0.20214000  0.61219400  0.69660400  1
  H  940  1  0.17147850  0.56933550  0.75299400  1
  H  941  1  0.12668900  0.54236800  0.69654300  1
  H  943  1  0.37891200  0.57224600  0.65021800  1
  H  945  1  0.08210050  0.43355750  0.73291500  1
  H  951  1  0.26794850  0.66281950  0.99284508  1
  H  954  1  0.36587450  0.74255550  0.03000200  1
  H  955  1  0.35363150  0.77313550  0.08641900  1
  H  956  1  0.37156750  0.81803850  0.03002100  1
  H  958  1  0.14909950  0.56598350  0.98336110  1
  H  960  1  0.30735550  0.86261350  0.06644900  1
  N  17  1  0.56448200  0.59218900  0.92465500  1
  N  18  1  0.58817300  0.54632200  0.03886600  1
  N  51  1  0.98310600  0.38126700  0.25735700  1
  N  52  1  0.91346550  0.35717450  0.37132500  1
  N  85  1  0.35338400  0.96157200  0.59089800  1
  N  86  1  0.39930700  0.03148600  0.70492750  1
  N  107  1  0.41159200  0.21150000  0.84688900  1
  N  109  1  0.42622000  0.17686600  0.81827500  1
  N  114  1  0.49369500  0.15963300  0.76377700  1
  N  116  1  0.42786400  0.30585400  0.88548200  1
  N  122  1  0.75593100  0.53542100  0.18076700  1
  N  124  1  0.70655750  0.52039750  0.15217300  1
  N  129  1  0.62183050  0.45228250  0.09793800  1
  N  131  1  0.83434050  0.51992750  0.21956100  1
  N  137  1  0.73424150  0.18921050  0.51303100  1
  N  139  1  0.76881300  0.23861800  0.48453100  1
  N  144  1  0.78599150  0.32383750  0.43066100  1
  N  146  1  0.64015550  0.11123650  0.55193100  1
  N  152  1  0.51850850  0.76752550  0.82604900  1
  N  154  1  0.49564750  0.79702850  0.79966200  1
  N  159  1  0.41563150  0.80326250  0.75278000  1
  N  161  1  0.51623050  0.67935950  0.86530200  1
  N  167  1  0.20486500  0.42695700  0.15927200  1
  N  169  1  0.25731950  0.44991050  0.13299600  1
  N  174  1  0.34365650  0.53003350  0.08626100  1
  N  176  1  0.11873200  0.42902200  0.19826900  1
  N  182  1  0.17798000  0.73998300  0.49259900  1
  N  184  1  0.14848200  0.68758600  0.46625500  1
  N  189  1  0.14225950  0.60131750  0.41941600  1
  N  191  1  0.26615750  0.82596950  0.53175000  1
  N  785  1  0.56448200  0.59218900  0.47394900  1
  N  786  1  0.58817300  0.54632200  0.58816000  1
  N  819  1  0.98310600  0.38126700  0.80665100  1
  N  820  1  0.91346550  0.35717450  0.92061910  1
  N  853  1  0.35338400  0.96157200  0.14019200  1
  N  854  1  0.39930700  0.03148600  0.25422150  1
  N  875  1  0.41159200  0.21150000  0.39618300  1
  N  877  1  0.42622000  0.17686600  0.36756900  1
  N  882  1  0.49369500  0.15963300  0.31307100  1
  N  884  1  0.42786400  0.30585400  0.43477600  1
  N  890  1  0.75593100  0.53542100  0.73006100  1
  N  892  1  0.70655750  0.52039750  0.70146700  1
  N  897  1  0.62183050  0.45228250  0.64723200  1
  N  899  1  0.83434050  0.51992750  0.76885500  1
  N  905  1  0.73424150  0.18921050  0.06232500  1
  N  907  1  0.76881300  0.23861800  0.03382500  1
  N  912  1  0.78599150  0.32383750  0.97995510  1
  N  914  1  0.64015550  0.11123650  0.10122500  1
  N  920  1  0.51850850  0.76752550  0.37534300  1
  N  922  1  0.49564750  0.79702850  0.34895600  1
  N  927  1  0.41563150  0.80326250  0.30207400  1
  N  929  1  0.51623050  0.67935950  0.41459600  1
  N  935  1  0.20486500  0.42695700  0.70856600  1
  N  937  1  0.25731950  0.44991050  0.68229000  1
  N  942  1  0.34365650  0.53003350  0.63555500  1
  N  944  1  0.11873200  0.42902200  0.74756300  1
  N  950  1  0.17798000  0.73998300  0.04189300  1
  N  952  1  0.14848200  0.68758600  0.01554900  1
  N  957  1  0.14225950  0.60131750  0.96871010  1
  N  959  1  0.26615750  0.82596950  0.08104400  1
