# generated using pymatgen
data_H10C16N
_symmetry_space_group_name_H-M   'P 1'
_cell_length_a   9.96233333
_cell_length_b   42.88443208
_cell_length_c   43.02490000
_cell_angle_alpha   119.87772733
_cell_angle_beta   90.00710000
_cell_angle_gamma   90.00000154
_symmetry_Int_Tables_number   1
_chemical_formula_structural   H10C16N
_chemical_formula_sum   'H120 C192 N12'
_cell_volume   15938.41041693
_cell_formula_units_Z   12
loop_
 _symmetry_equiv_pos_site_id
 _symmetry_equiv_pos_as_xyz
  1  'x, y, z'
loop_
 _atom_site_type_symbol
 _atom_site_label
 _atom_site_symmetry_multiplicity
 _atom_site_fract_x
 _atom_site_fract_y
 _atom_site_fract_z
 _atom_site_occupancy
  C  1  1  0.99254800  0.70819300  0.17447400  1
  C  2  1  0.03690300  0.73230467  0.20972233  1
  C  3  1  0.03210000  0.72279500  0.23668167  1
  C  4  1  0.98525000  0.68853967  0.22918533  1
  C  5  1  0.94154100  0.66442300  0.19384467  1
  C  6  1  0.94473200  0.67409200  0.16701767  1
  C  7  1  0.97503600  0.67846500  0.25540633  1
  C  8  1  0.06341700  0.68716233  0.28218267  1
  C  9  1  0.05231600  0.67584000  0.30726833  1
  C  10  1  0.05344900  0.63882600  0.29654233  1
  C  11  1  0.05315000  0.62721800  0.32208100  1
  C  12  1  0.05413200  0.65338000  0.35895967  1
  C  13  1  0.05312800  0.69055800  0.37045200  1
  C  14  1  0.05340500  0.70141000  0.34430800  1
  C  15  1  0.06481800  0.71561933  0.40675100  1
  C  16  1  0.97615600  0.74232333  0.42503700  1
  C  17  1  0.98643900  0.76829400  0.46132167  1
  C  18  1  0.94249400  0.80382800  0.47297167  1
  C  19  1  0.03314400  0.76029067  0.48767933  1
  C  20  1  0.03775600  0.78695833  0.52416500  1
  C  21  1  0.99307500  0.82239500  0.53573100  1
  C  22  1  0.94536500  0.83035300  0.50948700  1
  C  23  1  0.06473200  0.59077600  0.31076167  1
  C  24  1  0.97637200  0.57240800  0.31920833  1
  C  25  1  0.98649300  0.53593800  0.30861500  1
  C  26  1  0.03013800  0.50963500  0.27397667  1
  C  27  1  0.94534400  0.52405600  0.33248300  1
  C  28  1  0.94807000  0.48733633  0.32220467  1
  C  29  1  0.99276700  0.46114700  0.28772100  1
  C  30  1  0.03456400  0.47294067  0.26385267  1
  C  52  1  0.99671700  0.53284567  0.82357933  1
  C  53  1  0.95214400  0.52171200  0.78834700  1
  C  54  1  0.95705500  0.48525600  0.76138200  1
  C  55  1  0.00403400  0.45849700  0.76886833  1
  C  56  1  0.04782400  0.46971600  0.80420533  1
  C  57  1  0.04463800  0.50620300  0.83103033  1
  C  58  1  0.01435200  0.42221367  0.74264100  1
  C  59  1  0.92604700  0.40412900  0.71584700  1
  C  60  1  0.93725400  0.36773500  0.69074233  1
  C  61  1  0.93630600  0.34143100  0.70145333  1
  C  62  1  0.93676800  0.30429233  0.67590533  1
  C  63  1  0.93574300  0.29361733  0.63903133  1
  C  64  1  0.93663100  0.31931833  0.62755033  1
  C  65  1  0.93617400  0.35629733  0.65370800  1
  C  66  1  0.92479200  0.30809467  0.59125333  1
  C  67  1  0.01341500  0.31649100  0.57293600  1
  C  68  1  0.00305500  0.30616867  0.53664367  1
  C  69  1  0.04721600  0.33000733  0.52495133  1
  C  70  1  0.95612000  0.27183400  0.51031600  1
  C  71  1  0.95156300  0.26199167  0.47381867  1
  C  72  1  0.99645000  0.28581633  0.46220833  1
  C  73  1  0.04434600  0.31999667  0.48842567  1
  C  74  1  0.92515400  0.27914633  0.68720400  1
  C  75  1  0.01319300  0.25223867  0.67863167  1
  C  76  1  0.00301500  0.22631933  0.68917867  1
  C  77  1  0.95949500  0.23459400  0.72381333  1
  C  78  1  0.04401400  0.19057600  0.66526067  1
  C  79  1  0.04127900  0.16409000  0.67548600  1
  C  80  1  0.99669700  0.17232633  0.70996633  1
  C  81  1  0.95504600  0.20797867  0.73388500  1
  C  103  1  0.99330100  0.11037800  0.84759200  1
  C  104  1  0.99592500  0.11047300  0.81556267  1
  C  105  1  0.99316000  0.07484400  0.78750800  1
  C  107  1  0.99137800  0.07467767  0.83993633  1
  C  108  1  0.98945600  0.06357467  0.86607667  1
  C  109  1  0.99215600  0.02711833  0.85793933  1
  C  111  1  0.99800100  0.96683067  0.82782633  1
  C  112  1  0.99551400  0.97834100  0.86445000  1
  C  113  1  0.99384000  0.01536500  0.88294567  1
  C  114  1  0.00126800  0.93045300  0.79959467  1
  C  115  1  0.99992733  0.91951233  0.76247000  1
  C  117  1  0.99790100  0.91963000  0.71002800  1
  C  118  1  0.99650500  0.88393800  0.70251467  1
  C  119  1  0.99929700  0.88386200  0.73455033  1
  C  120  1  0.99664200  0.93069700  0.68381867  1
  C  121  1  0.99542600  0.96715400  0.69190033  1
  C  123  1  0.99386600  0.02756300  0.72206200  1
  C  124  1  0.99264200  0.01600800  0.68543233  1
  C  125  1  0.99508800  0.97891533  0.66691033  1
  C  126  1  0.99347500  0.06395333  0.75034533  1
  C  127  1  0.99452700  0.09141500  0.74068133  1
  C  128  1  0.11169500  0.09828967  0.72655567  1
  C  129  1  0.11188900  0.12469767  0.71622933  1
  C  130  1  0.99602500  0.14556000  0.72044833  1
  C  131  1  0.87961200  0.13900600  0.73518067  1
  C  132  1  0.87833700  0.11204500  0.74478300  1
  C  133  1  0.99566700  0.90336600  0.64683100  1
  C  134  1  0.11231200  0.88304800  0.63029733  1
  C  135  1  0.11093700  0.85609200  0.59391867  1
  C  136  1  0.99393300  0.84921100  0.57280100  1
  C  137  1  0.87763500  0.86978567  0.58945533  1
  C  138  1  0.87797500  0.89620267  0.62600833  1
  C  139  1  0.00453200  0.90334900  0.80968233  1
  C  140  1  0.88719100  0.88414967  0.80807000  1
  C  141  1  0.88528300  0.86140533  0.82292733  1
  C  142  1  0.99890000  0.85777000  0.84078033  1
  C  143  1  0.11715900  0.87643900  0.84121700  1
  C  144  1  0.12070300  0.89843900  0.82556200  1
  C  145  1  0.98632900  0.09053000  0.90315933  1
  C  146  1  0.87005100  0.09542633  0.92387267  1
  C  147  1  0.10376500  0.10960000  0.92071700  1
  C  148  1  0.10560600  0.13222400  0.95818733  1
  C  149  1  0.99187000  0.13584500  0.97960967  1
  C  150  1  0.87362500  0.11724400  0.96140467  1
  C  177  1  0.99151400  0.73209800  0.88619300  1
  C  178  1  0.99392200  0.69991000  0.88616900  1
  C  179  1  0.99209100  0.70734433  0.92171233  1
  C  181  1  0.99061500  0.76003900  0.92175800  1
  C  182  1  0.98934000  0.79730700  0.93275200  1
  C  183  1  0.99244200  0.82554800  0.96904400  1
  C  185  1  0.99823200  0.85555800  0.02912600  1
  C  186  1  0.99632600  0.88075200  0.01754667  1
  C  187  1  0.99471100  0.86231900  0.98064400  1
  C  188  1  0.00115400  0.86356700  0.06541100  1
  C  189  1  0.99941200  0.83726900  0.07637700  1
  C  191  1  0.99753500  0.78459900  0.07637533  1
  C  192  1  0.99545600  0.81267300  0.11192700  1
  C  193  1  0.99813300  0.84485000  0.11193300  1
  C  194  1  0.99686700  0.74729633  0.06542433  1
  C  195  1  0.99581500  0.71899733  0.02912633  1
  C  197  1  0.99385400  0.68892600  0.96892633  1
  C  198  1  0.99351000  0.66375833  0.98052900  1
  C  199  1  0.99617000  0.68222733  0.01750300  1
  C  200  1  0.99277900  0.68096700  0.93263600  1
  C  201  1  0.99355000  0.64390900  0.90529433  1
  C  202  1  0.11127700  0.62301000  0.89799033  1
  C  203  1  0.11175000  0.58645000  0.87135600  1
  C  204  1  0.99557700  0.56988800  0.85069767  1
  C  205  1  0.87848200  0.59107933  0.85776333  1
  C  206  1  0.87696100  0.62745333  0.88493633  1
  C  207  1  0.99601200  0.73754633  0.09274867  1
  C  208  1  0.11255200  0.74144000  0.11312067  1
  C  209  1  0.11095700  0.73221000  0.14028167  1
  C  210  1  0.99378200  0.71811300  0.14734900  1
  C  211  1  0.87764600  0.71403867  0.12668533  1
  C  212  1  0.87823600  0.72395200  0.10003433  1
  C  213  1  0.00419400  0.90071300  0.09238100  1
  C  214  1  0.88681900  0.91818400  0.11152400  1
  C  215  1  0.88486100  0.95573600  0.13428200  1
  C  216  1  0.99846400  0.97730200  0.13799400  1
  C  217  1  0.11673400  0.95918300  0.11936200  1
  C  218  1  0.12028700  0.92157300  0.09732100  1
  C  219  1  0.98634300  0.80752300  0.90580200  1
  C  220  1  0.87026700  0.82347300  0.90089100  1
  C  221  1  0.10366400  0.80581200  0.88662300  1
  C  222  1  0.10559700  0.82059400  0.86384500  1
  C  223  1  0.99206000  0.83850100  0.86018200  1
  C  224  1  0.87381100  0.83903900  0.87883733  1
  C  251  1  0.99105200  0.14830700  0.26343567  1
  C  252  1  0.99375200  0.18042967  0.29544467  1
  C  253  1  0.99219100  0.20857500  0.28787767  1
  C  255  1  0.99043400  0.15599600  0.23547800  1
  C  256  1  0.98916000  0.12979033  0.19836533  1
  C  257  1  0.99243800  0.13789100  0.17009300  1
  C  259  1  0.99830200  0.16799800  0.13990133  1
  C  260  1  0.99672600  0.13124000  0.11493900  1
  C  261  1  0.99505200  0.11275200  0.13348300  1
  C  262  1  0.00097200  0.19628367  0.13170867  1
  C  263  1  0.99896600  0.23352767  0.15781300  1
  C  265  1  0.99689600  0.28613767  0.21019967  1
  C  266  1  0.99408900  0.29367533  0.18211333  1
  C  267  1  0.99699300  0.26154400  0.15011100  1
  C  268  1  0.99640000  0.31242867  0.24734900  1
  C  269  1  0.99597200  0.30436800  0.27567200  1
  C  271  1  0.99439200  0.27419133  0.30591200  1
  C  272  1  0.99460000  0.31094267  0.33085800  1
  C  273  1  0.99703600  0.32947067  0.31229000  1
  C  274  1  0.99324900  0.24585167  0.31404967  1
  C  275  1  0.99412400  0.25555000  0.35105300  1
  C  276  1  0.11175500  0.26924367  0.37189400  1
  C  277  1  0.11198500  0.27944033  0.40846567  1
  C  278  1  0.99565700  0.27552933  0.42512333  1
  C  279  1  0.87870800  0.26126400  0.40398833  1
  C  280  1  0.87743800  0.25178433  0.36758867  1
  C  281  1  0.99518600  0.34953233  0.25696100  1
  C  282  1  0.11137400  0.36609100  0.25290100  1
  C  283  1  0.11000300  0.40264867  0.26250800  1
  C  284  1  0.99348900  0.42389600  0.27719733  1
  C  285  1  0.87762300  0.40722167  0.28137233  1
  C  286  1  0.87791000  0.37049100  0.27103633  1
  C  287  1  0.00401600  0.18612933  0.09461367  1
  C  288  1  0.88661800  0.18769000  0.07706733  1
  C  289  1  0.88475700  0.17287200  0.03959800  1
  C  290  1  0.99847900  0.15508400  0.01817233  1
  C  291  1  0.11677900  0.15469100  0.03636333  1
  C  292  1  0.12025700  0.17029800  0.07388733  1
  C  293  1  0.98593300  0.09261900  0.18833500  1
  C  294  1  0.86981500  0.07181467  0.17244667  1
  C  295  1  0.10328700  0.07504700  0.18997000  1
  C  296  1  0.10517600  0.03746333  0.17520033  1
  C  297  1  0.99159400  0.01596467  0.15735467  1
  C  298  1  0.87334300  0.03417500  0.15687100  1
  H  31  1  0.06950200  0.75750400  0.21636200  1
  H  32  1  0.06113300  0.74149167  0.26205500  1
  H  33  1  0.91280900  0.65577233  0.14178100  1
  H  34  1  0.90623200  0.63944633  0.18724867  1
  H  35  1  0.05773100  0.72827200  0.35235433  1
  H  36  1  0.05772100  0.62009400  0.26977567  1
  H  37  1  0.05888000  0.64524200  0.37766367  1
  H  38  1  0.05712800  0.51683633  0.25547433  1
  H  39  1  0.90720100  0.81078133  0.45489233  1
  H  40  1  0.91328400  0.85574700  0.51671733  1
  H  41  1  0.07012300  0.77993500  0.54242167  1
  H  42  1  0.06226300  0.73474700  0.48068267  1
  H  43  1  0.06479800  0.45472100  0.23841167  1
  H  44  1  0.91805700  0.47990900  0.34034133  1
  H  45  1  0.91226400  0.54210800  0.35770567  1
  H  46  1  0.89834800  0.74432167  0.41158233  1
  H  47  1  0.14387100  0.71322000  0.41951700  1
  H  48  1  0.89774500  0.66285100  0.25347700  1
  H  49  1  0.14213500  0.70243167  0.28450100  1
  H  50  1  0.89903100  0.58589100  0.33482567  1
  H  51  1  0.14319800  0.57792600  0.29539633  1
  H  82  1  0.91963800  0.54027300  0.78169500  1
  H  83  1  0.92799400  0.47858633  0.73600933  1
  H  84  1  0.07665700  0.51311400  0.85626000  1
  H  85  1  0.08322300  0.45133867  0.81079867  1
  H  86  1  0.93178800  0.37512567  0.64567267  1
  H  87  1  0.93202400  0.34943933  0.72821533  1
  H  88  1  0.93096500  0.26678700  0.62031867  1
  H  89  1  0.93254700  0.26028167  0.74234733  1
  H  90  1  0.08269600  0.35501933  0.54300633  1
  H  91  1  0.07661200  0.33812800  0.48116800  1
  H  92  1  0.91900100  0.23673100  0.45559000  1
  H  93  1  0.92684500  0.25331433  0.51733833  1
  H  94  1  0.92484200  0.21515933  0.75932000  1
  H  95  1  0.07122300  0.13853933  0.65731667  1
  H  96  1  0.07703900  0.18344533  0.64004067  1
  H  97  1  0.09126200  0.33193300  0.58637100  1
  H  98  1  0.84568900  0.29294467  0.57851267  1
  H  99  1  0.09166900  0.40854200  0.74457633  1
  H  100  1  0.84730000  0.41706833  0.71352300  1
  H  101  1  0.09035400  0.25006533  0.66294633  1
  H  102  1  0.84686300  0.28170267  0.70263767  1
  H  151  1  0.78999500  0.11767700  0.97537400  1
  H  152  1  0.78471000  0.08110167  0.91202633  1
  H  153  1  0.19321100  0.14526600  0.96975867  1
  H  154  1  0.19013500  0.10618667  0.90648500  1
  H  155  1  0.99388700  0.13302233  0.87228067  1
  H  156  1  0.99898500  0.13325067  0.81361967  1
  H  157  1  0.98742700  0.02876000  0.79073133  1
  H  158  1  0.00144500  0.96558800  0.75916800  1
  H  159  1  0.99365100  0.03069500  0.91025367  1
  H  160  1  0.99539300  0.96285567  0.87636633  1
  H  161  1  0.80086700  0.88761433  0.79724200  1
  H  162  1  0.79770400  0.84831500  0.82145533  1
  H  163  1  0.20599500  0.91282100  0.82805533  1
  H  164  1  0.20060900  0.87600267  0.85481800  1
  H  165  1  0.99936200  0.86114167  0.73661967  1
  H  166  1  0.99406400  0.86122833  0.67789000  1
  H  167  1  0.99076000  0.03158233  0.67361333  1
  H  168  1  0.99581100  0.96347300  0.63960833  1
  H  169  1  0.19907800  0.88771200  0.64469500  1
  H  170  1  0.19743700  0.84209067  0.58272967  1
  H  171  1  0.79190300  0.91041100  0.63727867  1
  H  172  1  0.79057700  0.86527200  0.57521000  1
  H  173  1  0.79193200  0.10757700  0.75483567  1
  H  174  1  0.79346800  0.15325067  0.73823367  1
  H  175  1  0.19847600  0.12896700  0.70610067  1
  H  176  1  0.19739100  0.08382300  0.72334500  1
  H  225  1  0.79045200  0.85270400  0.87838633  1
  H  226  1  0.78496700  0.82599400  0.91522600  1
  H  227  1  0.19310600  0.81901000  0.85073100  1
  H  228  1  0.18985400  0.79487600  0.89004000  1
  H  229  1  0.99159900  0.73424433  0.86358633  1
  H  230  1  0.99637500  0.67524100  0.86349000  1
  H  231  1  0.98814200  0.75656200  0.96759900  1
  H  232  1  0.00244900  0.78798800  0.03051700  1
  H  233  1  0.99473400  0.87436100  0.96528900  1
  H  234  1  0.99644600  0.90814200  0.03291400  1
  H  235  1  0.80055500  0.90384300  0.10805700  1
  H  236  1  0.79730200  0.96726100  0.14736400  1
  H  237  1  0.20571300  0.90975500  0.08305600  1
  H  238  1  0.20025300  0.97328300  0.11988600  1
  H  239  1  0.99807600  0.86958400  0.13455200  1
  H  240  1  0.99286300  0.81065233  0.13459433  1
  H  241  1  0.99219700  0.63637667  0.96504967  1
  H  242  1  0.99748000  0.67030300  0.03296800  1
  H  243  1  0.19930500  0.75118067  0.10839967  1
  H  244  1  0.19729300  0.73516233  0.15437733  1
  H  245  1  0.79219400  0.72099400  0.08581933  1
  H  246  1  0.79047700  0.70441200  0.13133633  1
  H  247  1  0.79022400  0.64192500  0.88967800  1
  H  248  1  0.79207300  0.57994700  0.84370700  1
  H  249  1  0.19890700  0.57216500  0.86668333  1
  H  250  1  0.19735200  0.63424600  0.91219500  1
  H  299  1  0.78993800  0.02013700  0.14324500  1
  H  300  1  0.78453800  0.08369900  0.16993500  1
  H  301  1  0.19272500  0.02586800  0.17673200  1
  H  302  1  0.18951700  0.08935800  0.20085700  1
  H  303  1  0.99118700  0.12353467  0.26140433  1
  H  304  1  0.99617300  0.18237600  0.32008700  1
  H  305  1  0.98841100  0.20533300  0.23870000  1
  H  306  1  0.00299500  0.23687000  0.20705367  1
  H  307  1  0.99529300  0.08535867  0.12160567  1
  H  308  1  0.99703700  0.11923500  0.08762867  1
  H  309  1  0.80030300  0.19854233  0.09131167  1
  H  310  1  0.79722100  0.17441400  0.02803867  1
  H  311  1  0.20557300  0.16780367  0.08573533  1
  H  312  1  0.20028900  0.14108900  0.02238633  1
  H  313  1  0.99620000  0.25947533  0.12540700  1
  H  314  1  0.99083100  0.31837967  0.18402167  1
  H  315  1  0.99369800  0.32282933  0.35816500  1
  H  316  1  0.99876500  0.35685667  0.32407067  1
  H  317  1  0.19785500  0.35160000  0.24289267  1
  H  318  1  0.19614700  0.41386900  0.25949600  1
  H  319  1  0.79220300  0.35920567  0.27420200  1
  H  320  1  0.79094400  0.42158600  0.29144567  1
  H  321  1  0.79071300  0.24202700  0.35317933  1
  H  322  1  0.79219200  0.25845567  0.41517667  1
  H  323  1  0.19903300  0.28916767  0.42271500  1
  H  324  1  0.19785900  0.27216800  0.36062200  1
  N  106  1  0.99093500  0.05455100  0.80363000  1
  N  110  1  0.99531600  0.99704267  0.82534067  1
  N  116  1  0.99950600  0.93978500  0.74631667  1
  N  122  1  0.99510200  0.99729800  0.72450000  1
  N  180  1  0.99056500  0.74374200  0.94188400  1
  N  184  1  0.99523300  0.82291600  0.99907900  1
  N  190  1  0.99934700  0.80085600  0.05622600  1
  N  196  1  0.99482100  0.72157200  0.99903300  1
  N  254  1  0.99069900  0.19241267  0.25158567  1
  N  258  1  0.99509600  0.17056300  0.17252300  1
  N  264  1  0.99929700  0.24973500  0.19412433  1
  N  270  1  0.99483500  0.27169133  0.27328833  1
