# generated using pymatgen
data_Ni3H38C60(N3O7)2
_symmetry_space_group_name_H-M   'P 1'
_cell_length_a   11.26633000
_cell_length_b   16.59049000
_cell_length_c   20.13569926
_cell_angle_alpha   65.92207743
_cell_angle_beta   87.24175297
_cell_angle_gamma   83.54945000
_symmetry_Int_Tables_number   1
_chemical_formula_structural   Ni3H38C60(N3O7)2
_chemical_formula_sum   'Ni6 H76 C120 N12 O28'
_cell_volume   3414.40905834
_cell_formula_units_Z   2
loop_
 _symmetry_equiv_pos_site_id
 _symmetry_equiv_pos_as_xyz
  1  'x, y, z'
loop_
 _atom_site_type_symbol
 _atom_site_label
 _atom_site_symmetry_multiplicity
 _atom_site_fract_x
 _atom_site_fract_y
 _atom_site_fract_z
 _atom_site_occupancy
  Ni  Ni0  1  0.08486000  0.22417000  0.94482000  1
  Ni  Ni1  1  0.41398000  0.83127000  0.94462000  1
  Ni  Ni2  1  0.91513000  0.77582000  0.05518000  1
  Ni  Ni3  1  0.58602000  0.16872000  0.05538000  1
  Ni  Ni4  1  0.24934000  0.76230000  0.47779000  1
  Ni  Ni5  1  0.75065000  0.23769000  0.52221000  1
  H  H6  1  0.47251000  0.33826000  0.81925000  1
  H  H7  1  0.51126000  0.42915000  0.68742000  1
  H  H8  1  0.72064000  0.42623000  0.63914000  1
  H  H9  1  0.02787000  0.35109000  0.59971000  1
  H  H10  1  0.14087000  0.48317000  0.52615000  1
  H  H11  1  0.00637000  0.61114000  0.66509000  1
  H  H12  1  0.89750000  0.47773000  0.74096000  1
  H  H13  1  0.19154000  0.76291000  0.33536000  1
  H  H14  1  0.04752000  0.84552000  0.23495000  1
  H  H15  1  0.87459000  0.96788000  0.37278000  1
  H  H16  1  0.03105000  0.88187000  0.46607000  1
  H  H17  1  0.82005000  0.06381000  0.05359000  1
  H  H18  1  0.96980000  0.96427000  0.14628000  1
  H  H19  1  0.71828000  0.98046000  0.31175000  1
  H  H20  1  0.57997000  0.07681000  0.21217000  1
  H  H21  1  0.31786000  0.27993000  0.96254000  1
  H  H22  1  0.39882000  0.41563000  0.95382000  1
  H  H23  1  0.04579000  0.55446000  0.89071000  1
  H  H24  1  0.97949000  0.41062000  0.90053000  1
  H  H25  1  0.02888000  0.84336000  0.81641000  1
  H  H26  1  0.98804000  0.88471000  0.68461000  1
  H  H27  1  0.77785000  0.93578000  0.63836000  1
  H  H28  1  0.47326000  0.05119000  0.60073000  1
  H  H29  1  0.36097000  0.99414000  0.52567000  1
  H  H30  1  0.49093000  0.72712000  0.66372000  1
  H  H31  1  0.59938000  0.78368000  0.74077000  1
  H  H32  1  0.30717000  0.90264000  0.33469000  1
  H  H33  1  0.45243000  0.91945000  0.23454000  1
  H  H34  1  0.62406000  0.66082000  0.37264000  1
  H  H35  1  0.46702000  0.65486000  0.46597000  1
  H  H36  1  0.68292000  0.88176000  0.05357000  1
  H  H37  1  0.53187000  0.88923000  0.14606000  1
  H  H38  1  0.78046000  0.70759000  0.31165000  1
  H  H39  1  0.91979000  0.70947000  0.21229000  1
  H  H40  1  0.18043000  0.75824000  0.96139000  1
  H  H41  1  0.10050000  0.63016000  0.95401000  1
  H  H42  1  0.45413000  0.55454000  0.89035000  1
  H  H43  1  0.51951000  0.68952000  0.89926000  1
  H  H44  1  0.52749000  0.66173000  0.18075000  1
  H  H45  1  0.48873000  0.57086000  0.31257000  1
  H  H46  1  0.27935000  0.57377000  0.36086000  1
  H  H47  1  0.97212000  0.64891000  0.40029000  1
  H  H48  1  0.85912000  0.51683000  0.47385000  1
  H  H49  1  0.99363000  0.38886000  0.33491000  1
  H  H50  1  0.10250000  0.52227000  0.25904000  1
  H  H51  1  0.80846000  0.23708000  0.66464000  1
  H  H52  1  0.95247000  0.15448000  0.76505000  1
  H  H53  1  0.12540000  0.03212000  0.62722000  1
  H  H54  1  0.96894000  0.11813000  0.53393000  1
  H  H55  1  0.17994000  0.93619000  0.94641000  1
  H  H56  1  0.03019000  0.03573000  0.85372000  1
  H  H57  1  0.28172000  0.01954000  0.68825000  1
  H  H58  1  0.42003000  0.92319000  0.78783000  1
  H  H59  1  0.68214000  0.72007000  0.03746000  1
  H  H60  1  0.60117000  0.58437000  0.04618000  1
  H  H61  1  0.95421000  0.44554000  0.10929000  1
  H  H62  1  0.02050000  0.58938000  0.09947000  1
  H  H63  1  0.97112000  0.15663000  0.18359000  1
  H  H64  1  0.01195000  0.11529000  0.31539000  1
  H  H65  1  0.22215000  0.06421000  0.36164000  1
  H  H66  1  0.52673000  0.94880000  0.39927000  1
  H  H67  1  0.63902000  0.00586000  0.47433000  1
  H  H68  1  0.50907000  0.27288000  0.33628000  1
  H  H69  1  0.40062000  0.21632000  0.25923000  1
  H  H70  1  0.69283000  0.09735000  0.66531000  1
  H  H71  1  0.54757000  0.08054000  0.76546000  1
  H  H72  1  0.37593000  0.33917000  0.62736000  1
  H  H73  1  0.53297000  0.34513000  0.53403000  1
  H  H74  1  0.31707000  0.11824000  0.94643000  1
  H  H75  1  0.46812000  0.11077000  0.85394000  1
  H  H76  1  0.21953000  0.29240000  0.68835000  1
  H  H77  1  0.08021000  0.29053000  0.78770000  1
  H  H78  1  0.81956000  0.24175000  0.03861000  1
  H  H79  1  0.89949000  0.36984000  0.04598000  1
  H  H80  1  0.54586000  0.44546000  0.10965000  1
  H  H81  1  0.48049000  0.31048000  0.10073000  1
  C  C82  1  0.62673000  0.23897000  0.92216000  1
  C  C83  1  0.88327000  0.23839000  0.86469000  1
  C  C84  1  0.65573000  0.28854000  0.84413000  1
  C  C85  1  0.56228000  0.33958000  0.79677000  1
  C  C86  1  0.58438000  0.38987000  0.72353000  1
  C  C87  1  0.70072000  0.38885000  0.69640000  1
  C  C88  1  0.79303000  0.33776000  0.74393000  1
  C  C89  1  0.77417000  0.28696000  0.81808000  1
  C  C90  1  0.95862000  0.40806000  0.67398000  1
  C  C91  1  0.02618000  0.40776000  0.61394000  1
  C  C92  1  0.08788000  0.48087000  0.57342000  1
  C  C93  1  0.07982000  0.55419000  0.59184000  1
  C  C94  1  0.01033000  0.55353000  0.65186000  1
  C  C95  1  0.94983000  0.48040000  0.69342000  1
  C  C96  1  0.14292000  0.63332000  0.54810000  1
  C  C97  1  0.12035000  0.80965000  0.34081000  1
  C  C98  1  0.03878000  0.85577000  0.28517000  1
  C  C99  1  0.94689000  0.91400000  0.29538000  1
  C  C100  1  0.94275000  0.92265000  0.36218000  1
  C  C101  1  0.02934000  0.87559000  0.41441000  1
  C  C102  1  0.80173000  0.04257000  0.11157000  1
  C  C103  1  0.88493000  0.98776000  0.16389000  1
  C  C104  1  0.85877000  0.96570000  0.23788000  1
  C  C105  1  0.74598000  0.99715000  0.25558000  1
  C  C106  1  0.66744000  0.05083000  0.20055000  1
  C  C107  1  0.26045000  0.34195000  0.94642000  1
  C  C108  1  0.30502000  0.41907000  0.94137000  1
  C  C109  1  0.22850000  0.49781000  0.92295000  1
  C  C110  1  0.10882000  0.49507000  0.90756000  1
  C  C111  1  0.07069000  0.41594000  0.91272000  1
  C  C112  1  0.87566000  0.83888000  0.92150000  1
  C  C113  1  0.61837000  0.89829000  0.86521000  1
  C  C114  1  0.84597000  0.86797000  0.84323000  1
  C  C115  1  0.93866000  0.86437000  0.79489000  1
  C  C116  1  0.91569000  0.88765000  0.72160000  1
  C  C117  1  0.79911000  0.91595000  0.69544000  1
  C  C118  1  0.70761000  0.91945000  0.74381000  1
  C  C119  1  0.72714000  0.89547000  0.81807000  1
  C  C120  1  0.54091000  0.92015000  0.67425000  1
  C  C121  1  0.47437000  0.98063000  0.61426000  1
  C  C122  1  0.41300000  0.94868000  0.57293000  1
  C  C123  1  0.41994000  0.85717000  0.59092000  1
  C  C124  1  0.48822000  0.79768000  0.65095000  1
  C  C125  1  0.54835000  0.82875000  0.69313000  1
  C  C126  1  0.35688000  0.82166000  0.54711000  1
  C  C127  1  0.37854000  0.85062000  0.34032000  1
  C  C128  1  0.46087000  0.85960000  0.28481000  1
  C  C129  1  0.55268000  0.79128000  0.29512000  1
  C  C130  1  0.55624000  0.71665000  0.36200000  1
  C  C131  1  0.46920000  0.71207000  0.41418000  1
  C  C132  1  0.70017000  0.84516000  0.11156000  1
  C  C133  1  0.61631000  0.84800000  0.16376000  1
  C  C134  1  0.64132000  0.79632000  0.23771000  1
  C  C135  1  0.75360000  0.74683000  0.25549000  1
  C  C136  1  0.83282000  0.74759000  0.20061000  1
  C  C137  1  0.23825000  0.71215000  0.94544000  1
  C  C138  1  0.19424000  0.63942000  0.94112000  1
  C  C139  1  0.27113000  0.57892000  0.92281000  1
  C  C140  1  0.39075000  0.59730000  0.90702000  1
  C  C141  1  0.42834000  0.67185000  0.91156000  1
  C  C142  1  0.37327000  0.76103000  0.07784000  1
  C  C143  1  0.11672000  0.76161000  0.13531000  1
  C  C144  1  0.34427000  0.71145000  0.15587000  1
  C  C145  1  0.43771000  0.66042000  0.20323000  1
  C  C146  1  0.41561000  0.61012000  0.27647000  1
  C  C147  1  0.29928000  0.61114000  0.30360000  1
  C  C148  1  0.20696000  0.66224000  0.25607000  1
  C  C149  1  0.22582000  0.71303000  0.18192000  1
  C  C150  1  0.04137000  0.59194000  0.32602000  1
  C  C151  1  0.97382000  0.59223000  0.38606000  1
  C  C152  1  0.91212000  0.51912000  0.42658000  1
  C  C153  1  0.92017000  0.44580000  0.40816000  1
  C  C154  1  0.98967000  0.44647000  0.34814000  1
  C  C155  1  0.05017000  0.51959000  0.30658000  1
  C  C156  1  0.85707000  0.36668000  0.45190000  1
  C  C157  1  0.87964000  0.19035000  0.65919000  1
  C  C158  1  0.96122000  0.14422000  0.71483000  1
  C  C159  1  0.05311000  0.08599000  0.70462000  1
  C  C160  1  0.05724000  0.07735000  0.63782000  1
  C  C161  1  0.97066000  0.12441000  0.58559000  1
  C  C162  1  0.19826000  0.95742000  0.88843000  1
  C  C163  1  0.11507000  0.01224000  0.83611000  1
  C  C164  1  0.14123000  0.03430000  0.76212000  1
  C  C165  1  0.25401000  0.00284000  0.74442000  1
  C  C166  1  0.33255000  0.94916000  0.79945000  1
  C  C167  1  0.73955000  0.65804000  0.05358000  1
  C  C168  1  0.69498000  0.58093000  0.05863000  1
  C  C169  1  0.77149000  0.50219000  0.07705000  1
  C  C170  1  0.89117000  0.50493000  0.09244000  1
  C  C171  1  0.92930000  0.58405000  0.08728000  1
  C  C172  1  0.12434000  0.16112000  0.07850000  1
  C  C173  1  0.38163000  0.10171000  0.13479000  1
  C  C174  1  0.15403000  0.13202000  0.15677000  1
  C  C175  1  0.06134000  0.13562000  0.20511000  1
  C  C176  1  0.08431000  0.11235000  0.27840000  1
  C  C177  1  0.20089000  0.08404000  0.30456000  1
  C  C178  1  0.29238000  0.08056000  0.25618000  1
  C  C179  1  0.27286000  0.10453000  0.18193000  1
  C  C180  1  0.45908000  0.07984000  0.32575000  1
  C  C181  1  0.52563000  0.01937000  0.38574000  1
  C  C182  1  0.58700000  0.05132000  0.42707000  1
  C  C183  1  0.58005000  0.14283000  0.40908000  1
  C  C184  1  0.51178000  0.20232000  0.34905000  1
  C  C185  1  0.45165000  0.17124000  0.30687000  1
  C  C186  1  0.64312000  0.17833000  0.45289000  1
  C  C187  1  0.62146000  0.14938000  0.65968000  1
  C  C188  1  0.53912000  0.14041000  0.71518000  1
  C  C189  1  0.44731000  0.20872000  0.70488000  1
  C  C190  1  0.44375000  0.28334000  0.63800000  1
  C  C191  1  0.53080000  0.28793000  0.58582000  1
  C  C192  1  0.29982000  0.15483000  0.88844000  1
  C  C193  1  0.38369000  0.15200000  0.83624000  1
  C  C194  1  0.35868000  0.20367000  0.76229000  1
  C  C195  1  0.24640000  0.25317000  0.74451000  1
  C  C196  1  0.16718000  0.25241000  0.79939000  1
  C  C197  1  0.76175000  0.28785000  0.05456000  1
  C  C198  1  0.80576000  0.36057000  0.05888000  1
  C  C199  1  0.72886000  0.42108000  0.07719000  1
  C  C200  1  0.60925000  0.40269000  0.09298000  1
  C  C201  1  0.57166000  0.32814000  0.08844000  1
  N  N202  1  0.11785000  0.81990000  0.40393000  1
  N  N203  1  0.69494000  0.07465000  0.12953000  1
  N  N204  1  0.14486000  0.34009000  0.93287000  1
  N  N205  1  0.38059000  0.77801000  0.40350000  1
  N  N206  1  0.80638000  0.79482000  0.12963000  1
  N  N207  1  0.35376000  0.72787000  0.93145000  1
  N  N208  1  0.88214000  0.18009000  0.59607000  1
  N  N209  1  0.30506000  0.92534000  0.87047000  1
  N  N210  1  0.85513000  0.65991000  0.06713000  1
  N  N211  1  0.61941000  0.22199000  0.59650000  1
  N  N212  1  0.19361000  0.20518000  0.87037000  1
  N  N213  1  0.64624000  0.27214000  0.06854000  1
  O  O214  1  0.70764000  0.18684000  0.96616000  1
  O  O215  1  0.52112000  0.25084000  0.94574000  1
  O  O216  1  0.92059000  0.16068000  0.87482000  1
  O  O217  1  0.93671000  0.28849000  0.88661000  1
  O  O218  1  0.90846000  0.33057000  0.71703000  1
  O  O219  1  0.12110000  0.70374000  0.55970000  1
  O  O220  1  0.21820000  0.63081000  0.49872000  1
  O  O221  1  0.79556000  0.84810000  0.96591000  1
  O  O222  1  0.98064000  0.80214000  0.94494000  1
  O  O223  1  0.58177000  0.96718000  0.87369000  1
  O  O224  1  0.56506000  0.82614000  0.88878000  1
  O  O225  1  0.59230000  0.95386000  0.71758000  1
  O  O226  1  0.37595000  0.73931000  0.55953000  1
  O  O227  1  0.28384000  0.87368000  0.49694000  1
  O  O228  1  0.29235000  0.81315000  0.03384000  1
  O  O229  1  0.47887000  0.74916000  0.05426000  1
  O  O230  1  0.07941000  0.83931000  0.12518000  1
  O  O231  1  0.06329000  0.71150000  0.11339000  1
  O  O232  1  0.09154000  0.66943000  0.28296000  1
  O  O233  1  0.87890000  0.29626000  0.44029000  1
  O  O234  1  0.78180000  0.36919000  0.50128000  1
  O  O235  1  0.20444000  0.15190000  0.03409000  1
  O  O236  1  0.01935000  0.19786000  0.05506000  1
  O  O237  1  0.41823000  0.03282000  0.12631000  1
  O  O238  1  0.43494000  0.17385000  0.11122000  1
  O  O239  1  0.40769000  0.04613000  0.28242000  1
  O  O240  1  0.62405000  0.26069000  0.44047000  1
  O  O241  1  0.71615000  0.12632000  0.50306000  1
