# generated using pymatgen
data_H28C43(N4O)2
_symmetry_space_group_name_H-M   'P 1'
_cell_length_a   11.94326667
_cell_length_b   25.64560000
_cell_length_c   32.95430000
_cell_angle_alpha   90.00000000
_cell_angle_beta   90.00000000
_cell_angle_gamma   90.00000000
_symmetry_Int_Tables_number   1
_chemical_formula_structural   H28C43(N4O)2
_chemical_formula_sum   'H112 C172 N32 O8'
_cell_volume   10093.64635233
_cell_formula_units_Z   4
loop_
 _symmetry_equiv_pos_site_id
 _symmetry_equiv_pos_as_xyz
  1  'x, y, z'
loop_
 _atom_site_type_symbol
 _atom_site_label
 _atom_site_symmetry_multiplicity
 _atom_site_fract_x
 _atom_site_fract_y
 _atom_site_fract_z
 _atom_site_occupancy
  C  1  1  0.90363300  0.01144600  0.95793900  1
  C  2  1  0.81457600  0.04535500  0.96890700  1
  C  3  1  0.74003900  0.06459400  0.93912500  1
  C  4  1  0.91282600  0.99755300  0.91594400  1
  C  5  1  0.09881000  0.00455600  0.98128600  1
  C  6  1  0.18151400  0.96627100  0.97284100  1
  C  7  1  0.04095500  0.89321700  0.98060300  1
  C  8  1  0.95400600  0.92917800  0.98950300  1
  C  9  1  0.01837700  0.83924800  0.97830300  1
  C  10  1  0.90954000  0.82018400  0.98344400  1
  C  11  1  0.13531800  0.05782900  0.98324100  1
  C  12  1  0.24861500  0.07309800  0.97670300  1
  C  13  1  0.32685700  0.03315400  0.96859300  1
  C  14  1  0.29385400  0.98095700  0.96610500  1
  C  20  1  0.97868800  0.98768800  0.99069500  1
  C  21  1  0.15718200  0.90972700  0.97211400  1
  C  25  1  0.05342900  0.46862300  0.95917900  1
  C  26  1  0.14403800  0.43572900  0.97031600  1
  C  27  1  0.21962000  0.41718000  0.94061400  1
  C  28  1  0.04346700  0.48211900  0.91713600  1
  C  29  1  0.85783200  0.47219900  0.98211300  1
  C  30  1  0.77186400  0.50873500  0.97325400  1
  C  31  1  0.90580200  0.58433900  0.98192300  1
  C  32  1  0.99609300  0.55007200  0.99052500  1
  C  33  1  0.92269900  0.63880500  0.98149800  1
  C  34  1  0.02916900  0.65997200  0.98787600  1
  C  35  1  0.82651100  0.41826800  0.98380000  1
  C  36  1  0.71442600  0.40105600  0.97782100  1
  C  37  1  0.63343200  0.43877400  0.96743400  1
  C  38  1  0.66153900  0.49168400  0.96528500  1
  C  45  1  0.79126900  0.56569200  0.97293200  1
  C  48  1  0.41206800  0.19592600  0.97744500  1
  C  51  1  0.36727200  0.14735600  0.96597200  1
  C  53  1  0.36661800  0.71468300  0.98249700  1
  C  54  1  0.39569800  0.75727000  0.95720400  1
  C  55  1  0.49578000  0.78602500  0.96341400  1
  C  57  1  0.52436900  0.82543800  0.93639100  1
  C  59  1  0.26639900  0.68748400  0.97628300  1
  C  181  1  0.86763000  0.03952100  0.04311400  1
  C  182  1  0.95694800  0.00470800  0.03442900  1
  C  183  1  0.02507000  0.98793600  0.06789700  1
  C  184  1  0.00755600  0.00565600  0.10832200  1
  C  185  1  0.91392800  0.03804700  0.11536200  1
  C  186  1  0.84598100  0.05508300  0.08343600  1
  C  187  1  0.75009100  0.04956200  0.89842900  1
  C  188  1  0.83538700  0.01508100  0.88612200  1
  C  189  1  0.81955800  0.85403300  0.99218900  1
  C  190  1  0.84360000  0.90823800  0.99495300  1
  C  199  1  0.79285900  0.06090900  0.01140000  1
  C  204  1  0.08971900  0.44107100  0.04444900  1
  C  205  1  0.99861600  0.47476500  0.03554900  1
  C  206  1  0.92954300  0.49112200  0.06887700  1
  C  207  1  0.94801900  0.47416400  0.10943900  1
  C  208  1  0.04311500  0.44277900  0.11667900  1
  C  209  1  0.11186600  0.42606600  0.08486500  1
  C  210  1  0.20881400  0.43182600  0.89984700  1
  C  211  1  0.12170600  0.46521500  0.88738600  1
  C  212  1  0.12355400  0.62769700  0.99390000  1
  C  213  1  0.10436300  0.57307400  0.99671000  1
  C  220  1  0.97624900  0.49122800  0.99173900  1
  C  222  1  0.16588700  0.42039300  0.01286300  1
  C  228  1  0.39753600  0.46681400  0.52161600  1
  C  229  1  0.31290600  0.43169300  0.50856800  1
  C  230  1  0.37644500  0.43828700  0.43570600  1
  C  231  1  0.46068100  0.47512700  0.44597500  1
  C  232  1  0.53241500  0.49262000  0.41369700  1
  C  233  1  0.52172300  0.47381300  0.37323500  1
  C  234  1  0.43583300  0.43796700  0.36479600  1
  C  235  1  0.36374700  0.42076700  0.39536800  1
  C  236  1  0.23405800  0.41148300  0.53628500  1
  C  237  1  0.23607200  0.42621100  0.57707500  1
  C  238  1  0.31920700  0.46015800  0.59230800  1
  C  239  1  0.39832000  0.48033300  0.56392600  1
  C  240  1  0.59535500  0.47505700  0.50127000  1
  C  241  1  0.67699500  0.51341500  0.51082800  1
  C  242  1  0.53654700  0.58615600  0.50188600  1
  C  243  1  0.45063800  0.55014600  0.49176600  1
  C  244  1  0.51361100  0.64007000  0.50434100  1
  C  245  1  0.40513900  0.65906800  0.49834700  1
  C  246  1  0.31598300  0.62518600  0.48863700  1
  C  247  1  0.34050800  0.57103100  0.48547800  1
  C  248  1  0.63289900  0.42196000  0.49904800  1
  C  249  1  0.74605600  0.40701800  0.50622200  1
  C  250  1  0.82310700  0.44700600  0.51559900  1
  C  251  1  0.78905800  0.49901400  0.51849400  1
  C  264  1  0.47606200  0.49168800  0.49029700  1
  C  265  1  0.65214800  0.56986100  0.51153800  1
  C  268  1  0.29902100  0.41565100  0.46584500  1
  C  275  1  0.55936000  0.01559500  0.52045400  1
  C  276  1  0.64556400  0.04978000  0.50727200  1
  C  277  1  0.58117500  0.04361900  0.43445600  1
  C  278  1  0.49495100  0.00789000  0.44491300  1
  C  279  1  0.42240100  0.99081500  0.41273800  1
  C  280  1  0.43441500  0.00885300  0.37211800  1
  C  281  1  0.52205500  0.04370900  0.36350000  1
  C  282  1  0.59476900  0.06057000  0.39400600  1
  C  283  1  0.72530700  0.06931600  0.53495000  1
  C  284  1  0.72255400  0.05480700  0.57579700  1
  C  285  1  0.63775200  0.02185000  0.59115200  1
  C  286  1  0.55785600  0.00231000  0.56280000  1
  C  287  1  0.36118500  0.01081100  0.50040200  1
  C  288  1  0.27615700  0.97428400  0.51040700  1
  C  289  1  0.40978600  0.89885700  0.50080800  1
  C  290  1  0.49914700  0.93310300  0.49089500  1
  C  291  1  0.42680400  0.84441400  0.50151800  1
  C  292  1  0.53277500  0.82322400  0.49431500  1
  C  293  1  0.62660700  0.85548100  0.48719000  1
  C  294  1  0.60700500  0.91006400  0.48388200  1
  C  295  1  0.32900700  0.06460500  0.49830500  1
  C  296  1  0.21705400  0.08159500  0.50487500  1
  C  297  1  0.13717100  0.04395500  0.51644800  1
  C  298  1  0.16615100  0.99119700  0.51912200  1
  C  311  1  0.47874900  0.99191500  0.48931400  1
  C  312  1  0.29593500  0.91740000  0.51091000  1
  C  315  1  0.65980900  0.06561200  0.46449700  1
  C  322  1  0.53509000  0.28819100  0.99458600  1
  C  323  1  0.44486900  0.27277700  0.01980300  1
  C  324  1  0.38290100  0.22654700  0.01187000  1
  C  326  1  0.29833400  0.21135600  0.03832200  1
  C  327  1  0.33111900  0.18467700  0.07526400  1
  C  332  1  0.59670300  0.33352800  0.00258500  1
  C  334  1  0.03544100  0.19311100  0.48740500  1
  C  335  1  0.94441400  0.20807200  0.46240700  1
  C  336  1  0.88168800  0.25402900  0.47050600  1
  C  337  1  0.91101100  0.28476400  0.50485600  1
  C  341  1  0.79595300  0.26869100  0.44444500  1
  C  342  1  0.82586600  0.29579100  0.40733000  1
  C  347  1  0.09787700  0.14806600  0.47940300  1
  C  349  1  0.86529800  0.33297100  0.51665800  1
  C  351  1  0.56673200  0.77166300  0.99625800  1
  C  354  1  0.57971800  0.81073600  0.89889500  1
  C  358  1  0.67435400  0.79129000  0.00403500  1
  C  360  1  0.86900400  0.76814500  0.49852900  1
  C  361  1  0.89908700  0.72675500  0.52485700  1
  C  362  1  0.99725700  0.69674300  0.51827800  1
  C  363  1  0.06529800  0.70862300  0.48405800  1
  C  367  1  0.02732900  0.65873100  0.54630800  1
  C  368  1  0.08573600  0.67461600  0.58281000  1
  C  373  1  0.77022400  0.79636800  0.50504800  1
  C  375  1  0.17188200  0.68804100  0.47593500  1
  C  377  1  0.16799700  0.01226100  0.20353000  1
  C  378  1  0.20827000  0.05309500  0.22850100  1
  C  379  1  0.25152500  0.04331500  0.26784300  1
  C  380  1  0.25384400  0.99095900  0.28234200  1
  C  384  1  0.28308300  0.08525200  0.29203100  1
  C  385  1  0.37399900  0.11907500  0.27952300  1
  C  390  1  0.11427200  0.02412700  0.16677000  1
  C  392  1  0.29012800  0.97529900  0.32115600  1
  C  394  1  0.78875700  0.46837400  0.20497400  1
  C  395  1  0.75115600  0.42785200  0.23079200  1
  C  396  1  0.70760700  0.43833400  0.26998600  1
  C  397  1  0.70214700  0.49109900  0.28342800  1
  C  401  1  0.67889500  0.39681400  0.29506900  1
  C  402  1  0.59022600  0.36127200  0.28335300  1
  C  407  1  0.84306400  0.45603600  0.16842400  1
  C  409  1  0.66518600  0.50753400  0.32194800  1
  C  411  1  0.74354400  0.98804200  0.78386600  1
  C  412  1  0.68089800  0.95286000  0.75973700  1
  C  413  1  0.65588700  0.96416800  0.71843900  1
  C  414  1  0.69317100  0.01227700  0.70176500  1
  C  418  1  0.59628500  0.92863800  0.69518100  1
  C  419  1  0.65496200  0.88388500  0.67883100  1
  C  424  1  0.76297600  0.97889200  0.82512200  1
  C  426  1  0.67755200  0.03125500  0.66210500  1
  C  428  1  0.21085300  0.49300600  0.78490700  1
  C  429  1  0.26808300  0.52971000  0.76039700  1
  C  430  1  0.29373400  0.51872900  0.71909400  1
  C  431  1  0.26290200  0.46938800  0.70285700  1
  C  435  1  0.34762900  0.55579200  0.69537500  1
  C  436  1  0.27980800  0.59724900  0.67830900  1
  C  441  1  0.19135700  0.50186900  0.82617800  1
  C  443  1  0.27998500  0.45051100  0.66324900  1
  H  15  1  0.41030200  0.04135400  0.96578800  1
  H  16  1  0.35401800  0.95333800  0.96095400  1
  H  17  1  0.08067900  0.81338100  0.97118900  1
  H  18  1  0.89604000  0.78122000  0.97905200  1
  H  19  1  0.67573200  0.08896100  0.94704200  1
  H  22  1  0.17996200  0.89516400  0.94199700  1
  H  39  1  0.55213800  0.42806300  0.96222100  1
  H  40  1  0.59958000  0.51799200  0.95881500  1
  H  41  1  0.85738600  0.66369300  0.97601400  1
  H  42  1  0.03748100  0.69965800  0.98729200  1
  H  43  1  0.98024600  0.50644700  0.90822200  1
  H  44  1  0.28501500  0.39350300  0.94862600  1
  H  46  1  0.76814700  0.58023700  0.94285000  1
  H  52  1  0.40707200  0.12916200  0.94351900  1
  H  56  1  0.34421300  0.76711000  0.93349900  1
  H  60  1  0.21902200  0.70012100  0.95341200  1
  H  191  1  0.77834500  0.93323400  0.99992100  1
  H  192  1  0.07850600  0.08606700  0.99071300  1
  H  193  1  0.09099200  0.96346200  0.06255600  1
  H  194  1  0.89526900  0.05043200  0.14410200  1
  H  195  1  0.78065600  0.07955900  0.08991200  1
  H  196  1  0.97455300  0.97234400  0.90715000  1
  H  197  1  0.69381600  0.06373200  0.87776400  1
  H  198  1  0.21133500  0.89075800  0.99448900  1
  H  200  1  0.70719600  0.04921100  0.01895000  1
  H  201  1  0.79766500  0.10348900  0.01286900  1
  H  214  1  0.17152100  0.54937800  0.00216300  1
  H  215  1  0.88582600  0.39112100  0.99116600  1
  H  216  1  0.86248900  0.51485700  0.06336000  1
  H  217  1  0.06244000  0.43096800  0.14550700  1
  H  218  1  0.17841400  0.40239400  0.09150500  1
  H  219  1  0.26571600  0.41809600  0.87922700  1
  H  221  1  0.73473900  0.58323100  0.99524100  1
  H  223  1  0.25089700  0.43294900  0.02054000  1
  H  224  1  0.16304800  0.37777400  0.01436200  1
  H  252  1  0.90649700  0.43904700  0.51897600  1
  H  253  1  0.84843500  0.52676200  0.52445900  1
  H  254  1  0.57518700  0.66592000  0.51228500  1
  H  255  1  0.39114800  0.69795100  0.50305400  1
  H  256  1  0.27575600  0.54601300  0.47976700  1
  H  257  1  0.57721100  0.39367500  0.49063400  1
  H  258  1  0.59635500  0.51781700  0.42002700  1
  H  259  1  0.42525100  0.42335200  0.33614100  1
  H  260  1  0.30321000  0.39411200  0.38801900  1
  H  261  1  0.45613500  0.50665300  0.57411600  1
  H  262  1  0.17153100  0.38708900  0.52666800  1
  H  263  1  0.17341800  0.41262200  0.59538500  1
  H  266  1  0.67237200  0.58422600  0.54195300  1
  H  267  1  0.70788700  0.58910800  0.48982300  1
  H  269  1  0.21378900  0.42572300  0.45642600  1
  H  270  1  0.30771200  0.37317200  0.46471300  1
  H  299  1  0.05606300  0.05458800  0.52212600  1
  H  300  1  0.10493600  0.96486700  0.52641100  1
  H  301  1  0.36206500  0.81956300  0.50793600  1
  H  302  1  0.54125800  0.78354300  0.49530700  1
  H  303  1  0.67363800  0.93372600  0.47755500  1
  H  304  1  0.38731700  0.09176000  0.48996300  1
  H  305  1  0.35722100  0.96639000  0.41922000  1
  H  306  1  0.53362100  0.05778200  0.33473000  1
  H  307  1  0.65669100  0.08645300  0.38650200  1
  H  308  1  0.49852500  0.97679300  0.57308700  1
  H  309  1  0.78897800  0.09300000  0.52525400  1
  H  310  1  0.78577600  0.06786500  0.59408000  1
  H  313  1  0.27535800  0.90318900  0.54133100  1
  H  314  1  0.23775000  0.89951700  0.48933500  1
  H  316  1  0.74452200  0.05470900  0.45503300  1
  H  317  1  0.65300300  0.10816500  0.46328700  1
  H  325  1  0.42508400  0.29497600  0.04467000  1
  H  328  1  0.38957300  0.15300600  0.06865500  1
  H  329  1  0.25767000  0.16770300  0.08993000  1
  H  330  1  0.37079300  0.21178800  0.09641500  1
  H  333  1  0.56819800  0.35665500  0.02458200  1
  H  340  1  0.92450700  0.18571800  0.43764200  1
  H  343  1  0.88388100  0.32773000  0.41363600  1
  H  344  1  0.75121700  0.31247200  0.39325900  1
  H  345  1  0.86510200  0.26903800  0.38579500  1
  H  348  1  0.06856400  0.12423000  0.45801300  1
  H  350  1  0.90394300  0.35081800  0.53954400  1
  H  355  1  0.52094200  0.79148100  0.87837400  1
  H  356  1  0.61334000  0.84525800  0.88378400  1
  H  357  1  0.64956100  0.78431100  0.90490200  1
  H  359  1  0.72698200  0.76721100  0.01809100  1
  H  366  1  0.84974500  0.71869200  0.54954600  1
  H  369  1  0.02885900  0.69485300  0.60345400  1
  H  370  1  0.11990600  0.64053400  0.59833400  1
  H  371  1  0.15547100  0.70053300  0.57546300  1
  H  374  1  0.72446600  0.78512300  0.52878400  1
  H  376  1  0.22509100  0.71172800  0.46176300  1
  H  383  1  0.20279400  0.09084000  0.21842000  1
  H  386  1  0.44397700  0.09624000  0.26768800  1
  H  387  1  0.40423900  0.14150000  0.30546500  1
  H  388  1  0.34615600  0.14623700  0.25607500  1
  H  391  1  0.10041800  0.06193400  0.16171700  1
  H  393  1  0.25731900  0.94373700  0.33388900  1
  H  400  1  0.75904900  0.38987300  0.22148800  1
  H  403  1  0.51882600  0.38264800  0.27099300  1
  H  404  1  0.56139500  0.33943600  0.30980700  1
  H  405  1  0.61986600  0.33363000  0.26054500  1
  H  408  1  0.85896400  0.41827200  0.16403600  1
  H  410  1  0.69674700  0.53970800  0.33415900  1
  H  417  1  0.65332500  0.91863000  0.77232200  1
  H  420  1  0.67469600  0.85606000  0.70289600  1
  H  421  1  0.60321400  0.86438800  0.65610800  1
  H  422  1  0.73277600  0.89590300  0.66411000  1
  H  425  1  0.70527900  0.95837500  0.83999700  1
  H  427  1  0.70091700  0.06809100  0.65777100  1
  H  434  1  0.29107900  0.56483500  0.77268900  1
  H  437  1  0.25377200  0.62455900  0.70194200  1
  H  438  1  0.32760500  0.61856300  0.65544100  1
  H  439  1  0.20523100  0.58141400  0.66356700  1
  H  442  1  0.24689100  0.52386100  0.84085300  1
  H  444  1  0.25910100  0.41333500  0.65897600  1
  N  23  1  0.71389100  0.83540000  0.99123600  1
  N  24  1  0.28588800  0.12224900  0.98329500  1
  N  47  1  0.68299400  0.35074800  0.98171200  1
  N  49  1  0.49991700  0.21400300  0.95486700  1
  N  50  1  0.55710400  0.25665000  0.96243900  1
  N  202  1  0.84173200  0.00121500  0.84680100  1
  N  203  1  0.07205200  0.99197300  0.14050900  1
  N  225  1  0.22592400  0.64989900  0.99817300  1
  N  226  1  0.11427200  0.47855900  0.84799000  1
  N  227  1  0.88313700  0.48789800  0.14151400  1
  N  271  1  0.21041800  0.64398800  0.48926500  1
  N  272  1  0.31325800  0.47623100  0.63149600  1
  N  273  1  0.58920000  0.48259500  0.34166400  1
  N  274  1  0.78430300  0.35816400  0.49920900  1
  N  318  1  0.72849700  0.83294400  0.48242500  1
  N  319  1  0.64272400  0.00589400  0.63039400  1
  N  320  1  0.36702900  0.00013800  0.34049200  1
  N  321  1  0.18474300  0.13163400  0.50031100  1
  N  338  1  0.99974700  0.26714300  0.52717800  1
  N  339  1  0.05761400  0.22477300  0.51945200  1
  N  352  1  0.53219800  0.73011500  0.01902900  1
  N  353  1  0.43920400  0.70375500  0.01310800  1
  N  364  1  0.03012300  0.74921100  0.46038600  1
  N  365  1  0.93875800  0.77668300  0.46661900  1
  N  381  1  0.21278400  0.95397400  0.25644600  1
  N  382  1  0.17248600  0.96359000  0.21996200  1
  N  398  1  0.74079600  0.52776000  0.25677900  1
  N  399  1  0.78145100  0.51748500  0.22045900  1
  N  415  1  0.75291300  0.04358800  0.72742100  1
  N  416  1  0.77647400  0.03284200  0.76541100  1
  N  432  1  0.20798500  0.43667200  0.72886500  1
  N  433  1  0.18372900  0.44711900  0.76684300  1
  O  58  1  0.45726400  0.86130900  0.93328100  1
  O  331  1  0.21988300  0.24182900  0.04130500  1
  O  346  1  0.71819800  0.23783600  0.44126500  1
  O  372  1  0.95985100  0.62314000  0.55036500  1
  O  389  1  0.20529000  0.10657400  0.30964700  1
  O  406  1  0.75809200  0.37723200  0.31308200  1
  O  423  1  0.50011600  0.92077400  0.70653300  1
  O  440  1  0.44138200  0.56816100  0.70686600  1
