# generated using pymatgen
data_H11C18(N2O3)2
_symmetry_space_group_name_H-M   'P 1'
_cell_length_a   22.40940000
_cell_length_b   44.50723955
_cell_length_c   44.50723955
_cell_angle_alpha   86.36626749
_cell_angle_beta   75.41890439
_cell_angle_gamma   75.41890439
_symmetry_Int_Tables_number   1
_chemical_formula_structural   H11C18(N2O3)2
_chemical_formula_sum   'H176 C288 N64 O96'
_cell_volume   41577.25945206
_cell_formula_units_Z   16
loop_
 _symmetry_equiv_pos_site_id
 _symmetry_equiv_pos_as_xyz
  1  'x, y, z'
loop_
 _atom_site_type_symbol
 _atom_site_label
 _atom_site_symmetry_multiplicity
 _atom_site_fract_x
 _atom_site_fract_y
 _atom_site_fract_z
 _atom_site_occupancy
  C  1  1  0.80663550  0.90937600  0.91951400  1
  C  2  1  0.74753550  0.92946650  0.93382250  1
  C  3  1  0.69508350  0.93730350  0.91978750  1
  C  4  1  0.70539350  0.92562400  0.88930300  1
  C  5  1  0.76448400  0.90620600  0.87424000  1
  C  6  1  0.81470500  0.89815750  0.88921850  1
  C  9  1  0.85637850  0.89952700  0.93512900  1
  C  10  1  0.88264000  0.92042050  0.94760850  1
  C  11  1  0.93948650  0.90956850  0.95825850  1
  C  12  1  0.96634050  0.87686850  0.95829850  1
  C  13  1  0.93907350  0.85559850  0.94737450  1
  C  14  1  0.88495250  0.86743650  0.93573550  1
  C  23  1  0.96478250  0.82285450  0.94769950  1
  C  24  1  0.97165550  0.93040600  0.96664300  1
  C  25  1  0.63384750  0.95472150  0.93594050  1
  C  26  1  0.77593750  0.89811500  0.84272200  1
  C  31  1  0.63461600  0.59223550  0.58061650  1
  C  32  1  0.60991800  0.57214850  0.56629550  1
  C  33  1  0.55109900  0.56444800  0.58025800  1
  C  34  1  0.51913900  0.57618750  0.61071050  1
  C  35  1  0.54381850  0.59554150  0.62581050  1
  C  36  1  0.60110550  0.60348950  0.61089250  1
  C  39  1  0.69023200  0.60202450  0.56505050  1
  C  40  1  0.74981100  0.58108800  0.55254100  1
  C  41  1  0.80650300  0.59190500  0.54193400  1
  C  42  1  0.80081450  0.62459450  0.54188550  1
  C  43  1  0.74140050  0.64589750  0.55280050  1
  C  44  1  0.68741600  0.63410800  0.56443500  1
  C  53  1  0.73479800  0.67862900  0.55246100  1
  C  54  1  0.86785050  0.57103200  0.53354900  1
  C  55  1  0.52343350  0.54705700  0.56407700  1
  C  56  1  0.51547700  0.60371500  0.65730000  1
  C  61  1  0.71516750  0.92028550  0.59142350  1
  C  62  1  0.67624950  0.93457600  0.57128100  1
  C  63  1  0.63148250  0.92057650  0.56353650  1
  C  64  1  0.63006400  0.89010450  0.57523850  1
  C  65  1  0.66973000  0.87505050  0.59465750  1
  C  66  1  0.71196550  0.89000500  0.60267600  1
  C  69  1  0.75513450  0.93587350  0.60124750  1
  C  70  1  0.80223800  0.94837600  0.58033500  1
  C  71  1  0.84826500  0.95901350  0.59117350  1
  C  72  1  0.84241900  0.95909100  0.62386900  1
  C  73  1  0.79388050  0.94818550  0.64515450  1
  C  74  1  0.75159300  0.93652850  0.63333850  1
  C  83  1  0.78683250  0.94854500  0.67789500  1
  C  84  1  0.90126950  0.96740050  0.57033250  1
  C  85  1  0.58765600  0.93672700  0.54612200  1
  C  86  1  0.67304500  0.84354250  0.60273850  1
  C  91  1  0.22607950  0.58129700  0.90858500  1
  C  92  1  0.18129150  0.56703200  0.92874500  1
  C  93  1  0.11479500  0.58106000  0.93650600  1
  C  94  1  0.09464150  0.61153000  0.92479000  1
  C  95  1  0.13870350  0.62657400  0.90537200  1
  C  96  1  0.20388950  0.61158100  0.89733000  1
  C  99  1  0.29143450  0.56567600  0.89873200  1
  C  100  1  0.33017050  0.55316100  0.91962000  1
  C  101  1  0.39765900  0.54248200  0.90875100  1
  C  102  1  0.42452750  0.54241000  0.87604900  1
  C  103  1  0.38632350  0.55333500  0.85478600  1
  C  104  1  0.32057850  0.56501600  0.86663400  1
  C  113  1  0.41231900  0.55299550  0.82204050  1
  C  114  1  0.43824100  0.53410550  0.92957550  1
  C  115  1  0.06967650  0.56492350  0.95392150  1
  C  116  1  0.11864350  0.65808150  0.89719250  1
  C  121  1  0.19418350  0.09221850  0.08047950  1
  C  122  1  0.25329700  0.07212900  0.06618500  1
  C  123  1  0.30572350  0.06430250  0.08024050  1
  C  124  1  0.29536900  0.07599000  0.11072600  1
  C  125  1  0.23626100  0.09540150  0.12577350  1
  C  126  1  0.18606700  0.10343950  0.11077850  1
  C  129  1  0.14448200  0.10208100  0.06484100  1
  C  130  1  0.11817750  0.08119850  0.05237150  1
  C  131  1  0.06132350  0.09207250  0.04173250  1
  C  132  1  0.03452250  0.12477600  0.04168000  1
  C  133  1  0.06184600  0.14603250  0.05258450  1
  C  134  1  0.11596200  0.13417800  0.06422200  1
  C  143  1  0.03617900  0.17878000  0.05225500  1
  C  144  1  0.02908400  0.07125450  0.03337450  1
  C  145  1  0.36697700  0.04689650  0.06409450  1
  C  146  1  0.22476800  0.10350350  0.15729150  1
  C  151  1  0.36620550  0.40942450  0.41943650  1
  C  152  1  0.39087850  0.42951450  0.43376650  1
  C  153  1  0.44966650  0.43724400  0.41980000  1
  C  154  1  0.48159650  0.42554500  0.38933000  1
  C  155  1  0.45694300  0.40618600  0.37422400  1
  C  156  1  0.39970150  0.39820050  0.38914550  1
  C  159  1  0.31062800  0.39960250  0.43499950  1
  C  160  1  0.25101500  0.42051500  0.44750100  1
  C  161  1  0.19435750  0.40966400  0.45808000  1
  C  162  1  0.20011700  0.37697050  0.45811950  1
  C  163  1  0.25956850  0.35569250  0.44721850  1
  C  164  1  0.31351850  0.36751250  0.43560050  1
  C  173  1  0.26623700  0.32295650  0.44755250  1
  C  174  1  0.13297400  0.43050850  0.46644550  1
  C  175  1  0.47733800  0.45462650  0.43598750  1
  C  176  1  0.48523450  0.39808450  0.34272650  1
  C  181  1  0.28564600  0.08134300  0.40857500  1
  C  182  1  0.32455650  0.06705000  0.42871900  1
  C  183  1  0.36933200  0.08104200  0.43646400  1
  C  184  1  0.37076750  0.11151200  0.42476100  1
  C  185  1  0.33111150  0.12656800  0.40533800  1
  C  186  1  0.28886850  0.11161950  0.39731850  1
  C  189  1  0.24566400  0.06576050  0.39875450  1
  C  190  1  0.19856150  0.05326000  0.41966900  1
  C  191  1  0.15252800  0.04262250  0.40883650  1
  C  192  1  0.15836950  0.04254350  0.37613950  1
  C  193  1  0.20690900  0.05344750  0.35485050  1
  C  194  1  0.24919700  0.06510550  0.36666450  1
  C  203  1  0.21394800  0.05308600  0.32211200  1
  C  204  1  0.09952450  0.03423950  0.42967850  1
  C  205  1  0.41315250  0.06488750  0.45388150  1
  C  206  1  0.32781850  0.15807500  0.39725200  1
  C  211  1  0.77469600  0.42029500  0.09138700  1
  C  212  1  0.81948050  0.43456800  0.07123700  1
  C  213  1  0.88598200  0.42055300  0.06348600  1
  C  214  1  0.90614600  0.39008450  0.07520550  1
  C  215  1  0.86209100  0.37503200  0.09461600  1
  C  216  1  0.79689950  0.39001550  0.10264750  1
  C  219  1  0.70933400  0.43590650  0.10122950  1
  C  220  1  0.67061550  0.44842200  0.08033300  1
  C  221  1  0.60312500  0.45910100  0.09119000  1
  C  222  1  0.57623350  0.45917750  0.12389050  1
  C  223  1  0.61442000  0.44825000  0.14516100  1
  C  224  1  0.68016450  0.43656450  0.13332550  1
  C  233  1  0.58841000  0.44860500  0.17790600  1
  C  234  1  0.56256150  0.46747450  0.07035550  1
  C  235  1  0.93109450  0.43669500  0.04607700  1
  C  236  1  0.88216700  0.34352400  0.10279600  1
  C  481  1  0.02972000  0.02262900  0.01062800  1
  C  482  1  0.06004250  0.00415200  0.98370900  1
  C  483  1  0.03096750  0.98394500  0.97315200  1
  C  484  1  0.97090900  0.97906550  0.98933550  1
  C  485  1  0.94057900  0.99755000  0.01624800  1
  C  486  1  0.96959450  0.01780250  0.02677550  1
  C  489  1  0.11808750  0.98632850  0.94039950  1
  C  491  1  0.88264250  0.01529600  0.05960500  1
  C  493  1  0.16998400  0.98099150  0.91209950  1
  C  497  1  0.83097150  0.02047050  0.08799950  1
  C  505  1  0.06223100  0.47904850  0.48929950  1
  C  506  1  0.04708000  0.49737500  0.51632700  1
  C  507  1  0.98717600  0.51749600  0.52696800  1
  C  508  1  0.93843550  0.52244700  0.51076700  1
  C  509  1  0.95357800  0.50411450  0.48374650  1
  C  510  1  0.01344200  0.48394600  0.47313500  1
  C  513  1  0.04389800  0.51496900  0.55975600  1
  C  515  1  0.95684200  0.48660050  0.44026750  1
  C  517  1  0.06212550  0.52017700  0.58810300  1
  C  521  1  0.93877500  0.48156300  0.41182400  1
  C  529  1  0.05159200  0.01151500  0.47828600  1
  C  530  1  0.06342750  0.98452600  0.49666700  1
  C  531  1  0.01414250  0.97393850  0.51683550  1
  C  532  1  0.94920550  0.99012600  0.52172700  1
  C  533  1  0.93736900  0.01711450  0.50334750  1
  C  534  1  0.98665350  0.02770400  0.48317900  1
  C  537  1  0.10360600  0.94110200  0.51429600  1
  C  539  1  0.89719050  0.06053900  0.48571800  1
  C  541  1  0.15011650  0.91271100  0.51945800  1
  C  545  1  0.85067900  0.08893050  0.48055450  1
  C  553  1  0.54052450  0.49014650  0.02171750  1
  C  554  1  0.54385950  0.51707450  0.00324950  1
  C  555  1  0.50421100  0.52761100  0.98304700  1
  C  556  1  0.46030350  0.51142500  0.97820900  1
  C  557  1  0.45697350  0.48449750  0.99667450  1
  C  558  1  0.49662200  0.47395900  0.01687700  1
  C  561  1  0.55840350  0.56042950  0.98547750  1
  C  563  1  0.44242950  0.44114000  0.01444600  1
  C  565  1  0.58177550  0.58879350  0.98022450  1
  C  569  1  0.41905400  0.41277700  0.01970200  1
  C  577  1  0.47394600  0.48508650  0.48057050  1
  C  578  1  0.43755950  0.51184650  0.49820150  1
  C  579  1  0.46355050  0.52732550  0.51614050  1
  C  580  1  0.52685050  0.51660600  0.51948600  1
  C  581  1  0.56323800  0.48984800  0.50185200  1
  C  582  1  0.53729000  0.47440050  0.48386250  1
  C  585  1  0.36885950  0.55277850  0.51543750  1
  C  587  1  0.63185800  0.44886350  0.48469350  1
  C  589  1  0.30988550  0.57751050  0.52138550  1
  C  593  1  0.69068650  0.42404000  0.47889500  1
  C  601  1  0.43874200  0.01648350  0.01950850  1
  C  602  1  0.44678700  0.98979350  0.00176750  1
  C  603  1  0.50622150  0.97435200  0.98382500  1
  C  604  1  0.56214450  0.98504600  0.98059100  1
  C  605  1  0.55410500  0.01172950  0.99834250  1
  C  606  1  0.49469200  0.02713900  0.01633200  1
  C  609  1  0.43629300  0.94894900  0.98433400  1
  C  611  1  0.56454550  0.05262750  0.01569450  1
  C  613  1  0.40802100  0.92426150  0.97824850  1
  C  617  1  0.59272950  0.07740750  0.02162450  1
  C  625  1  0.45445100  0.02026450  0.48426450  1
  C  626  1  0.43574600  0.00261150  0.51101450  1
  C  627  1  0.47971850  0.98464700  0.52645700  1
  C  628  1  0.54635050  0.98134650  0.51573550  1
  C  629  1  0.56505450  0.99899950  0.48898550  1
  C  630  1  0.52108200  0.01696450  0.47354450  1
  C  633  1  0.38435000  0.98539000  0.55197700  1
  C  635  1  0.61645100  0.01622200  0.44802300  1
  C  637  1  0.33135850  0.97950300  0.57676700  1
  C  641  1  0.66944450  0.02211100  0.42323200  1
  C  649  1  0.95817250  0.48133250  0.01571550  1
  C  650  1  0.94852400  0.49903200  0.98899400  1
  C  651  1  0.98995050  0.51701650  0.97357450  1
  C  652  1  0.04258900  0.52028950  0.98428750  1
  C  653  1  0.05223500  0.50259200  0.01101000  1
  C  654  1  0.01080900  0.48460850  0.02642950  1
  C  657  1  0.92079550  0.51632700  0.94806700  1
  C  659  1  0.07996500  0.48529750  0.05193650  1
  C  661  1  0.88666000  0.52226100  0.92329400  1
  C  665  1  0.11409900  0.47936400  0.07671000  1
  C  865  1  0.77241600  0.92257300  0.72754600  1
  C  866  1  0.80639300  0.89547550  0.73994550  1
  C  867  1  0.81072250  0.89426450  0.77077250  1
  C  868  1  0.78038550  0.91952750  0.79134450  1
  C  869  1  0.74412100  0.94607650  0.77936250  1
  C  870  1  0.73957550  0.94723750  0.74863050  1
  C  873  1  0.86598750  0.85220850  0.74732050  1
  C  875  1  0.68415950  0.98926350  0.77230350  1
  C  877  1  0.90770700  0.82080750  0.74184550  1
  C  881  1  0.64247500  0.02065800  0.77785000  1
  C  889  1  0.42155350  0.57901100  0.77244200  1
  C  890  1  0.44086350  0.60612000  0.76010000  1
  C  891  1  0.47478150  0.60738950  0.72927850  1
  C  892  1  0.49025650  0.58217100  0.70865500  1
  C  893  1  0.46858050  0.55560250  0.72058250  1
  C  894  1  0.43446500  0.55438800  0.75130700  1
  C  897  1  0.46450450  0.64940400  0.75280700  1
  C  899  1  0.44468950  0.51242850  0.72754050  1
  C  901  1  0.46930650  0.68079700  0.75834000  1
  C  905  1  0.43989900  0.48105850  0.72192250  1
  C  913  1  0.69436700  0.72828350  0.57841050  1
  C  914  1  0.70130300  0.74070600  0.60548300  1
  C  915  1  0.70436500  0.77154350  0.60667250  1
  C  916  1  0.69917350  0.79210300  0.58140800  1
  C  917  1  0.68942400  0.78009550  0.55488250  1
  C  918  1  0.68609900  0.74935250  0.55374250  1
  C  921  1  0.71772200  0.74811850  0.64871950  1
  C  923  1  0.67256350  0.77299850  0.51172650  1
  C  925  1  0.72811900  0.74266650  0.68010550  1
  C  929  1  0.66220250  0.77852100  0.48034300  1
  C  937  1  0.99976650  0.77321350  0.92177450  1
  C  938  1  0.04612550  0.76081450  0.89467250  1
  C  939  1  0.08126650  0.72998500  0.89345100  1
  C  940  1  0.07150800  0.70940750  0.91871350  1
  C  941  1  0.02330583  0.72137817  0.94525717  1
  C  942  1  0.98801900  0.75212600  0.94643900  1
  C  945  1  0.11305600  0.75343800  0.85139200  1
  C  947  1  0.95628000  0.72845000  0.98846000  1
  C  949  1  0.14928000  0.75891350  0.81998850  1
  C  953  1  0.92014100  0.72290150  0.01985450  1
  C  961  1  0.22832950  0.07905800  0.27246200  1
  C  962  1  0.19432800  0.10615150  0.26006750  1
  C  963  1  0.18997800  0.10736150  0.22924450  1
  C  964  1  0.22031550  0.08209550  0.20867050  1
  C  965  1  0.25660000  0.05555150  0.22064750  1
  C  966  1  0.26116750  0.05439400  0.25137700  1
  C  969  1  0.13471100  0.14941550  0.25269850  1
  C  971  1  0.31659150  0.01237350  0.22769750  1
  C  973  1  0.09298350  0.18081200  0.25817600  1
  C  977  1  0.35829200  0.98098150  0.22214750  1
  C  985  1  0.57911850  0.42261200  0.22751500  1
  C  986  1  0.55971700  0.39553350  0.23987950  1
  C  987  1  0.52580050  0.39429850  0.27070950  1
  C  988  1  0.51043400  0.41952650  0.29131450  1
  C  989  1  0.53220750  0.44606150  0.27936050  1
  C  990  1  0.56630850  0.44724100  0.24862900  1
  C  993  1  0.53591450  0.35228600  0.24721500  1
  C  995  1  0.55623950  0.48920300  0.27235700  1
  C  997  1  0.53100750  0.32090600  0.24171100  1
  C  1001  1  0.56112450  0.52056250  0.27794450  1
  C  1009  1  0.30670550  0.27331450  0.42158650  1
  C  1010  1  0.29972450  0.26090600  0.39451800  1
  C  1011  1  0.29662250  0.23007500  0.39332800  1
  C  1012  1  0.30182450  0.20950700  0.41858600  1
  C  1013  1  0.31161483  0.22151617  0.44512017  1
  C  1014  1  0.31498850  0.25223750  0.44624550  1
  C  1017  1  0.28321750  0.25351900  0.35129500  1
  C  1019  1  0.32853150  0.22858000  0.48825700  1
  C  1021  1  0.27276800  0.25898600  0.31992000  1
  C  1025  1  0.33889750  0.22304900  0.51963800  1
  C  1033  1  0.00117900  0.22841500  0.07819200  1
  C  1034  1  0.95480800  0.24079900  0.10529500  1
  C  1035  1  0.91963350  0.27162250  0.10652250  1
  C  1036  1  0.92937350  0.29220600  0.08126500  1
  C  1037  1  0.97760400  0.28023800  0.05470800  1
  C  1038  1  0.01290850  0.24950900  0.05353500  1
  C  1041  1  0.88786450  0.24815150  0.14857250  1
  C  1043  1  0.04462150  0.27320050  0.01151850  1
  C  1045  1  0.85164450  0.24265950  0.17997350  1
  C  1049  1  0.08074900  0.27876250  0.98012650  1
  H  7  1  0.74132300  0.93599200  0.95622000  1
  H  16  1  0.86431150  0.85212200  0.92832000  1
  H  19  1  0.89837300  0.89571250  0.86460550  1
  H  20  1  0.88317500  0.95730800  0.92374200  1
  H  21  1  0.66172250  0.95314100  0.86317000  1
  H  22  1  0.00574550  0.86537550  0.99177250  1
  H  37  1  0.63264950  0.56565150  0.54389350  1
  H  46  1  0.64408550  0.64945150  0.57185550  1
  H  49  1  0.65762200  0.60587600  0.63557600  1
  H  50  1  0.76329900  0.54419000  0.57639800  1
  H  51  1  0.47649050  0.54879350  0.63683450  1
  H  52  1  0.86227500  0.63603250  0.50840950  1
  H  67  1  0.67648450  0.95698800  0.56479900  1
  H  76  1  0.71566050  0.92910900  0.64866400  1
  H  79  1  0.79314950  0.86536950  0.60514650  1
  H  80  1  0.83961400  0.92450150  0.54345250  1
  H  81  1  0.61383200  0.86398800  0.54773100  1
  H  82  1  0.87033150  0.99260100  0.63528800  1
  H  97  1  0.19742700  0.54461650  0.93522550  1
  H  106  1  0.29251300  0.57243700  0.85132600  1
  H  109  1  0.26297550  0.63618650  0.89483150  1
  H  110  1  0.30691300  0.57704300  0.95649300  1
  H  111  1  0.02477800  0.63763550  0.95230150  1
  H  112  1  0.49733800  0.50889600  0.86457400  1
  H  127  1  0.25954350  0.06560100  0.04378700  1
  H  136  1  0.13663100  0.14948050  0.07163450  1
  H  139  1  0.10237650  0.10588650  0.13536250  1
  H  140  1  0.11759150  0.04431900  0.07624700  1
  H  141  1  0.33901500  0.04849400  0.13688200  1
  H  142  1  0.99511450  0.13626400  0.00820500  1
  H  157  1  0.36816300  0.43599000  0.45617600  1
  H  166  1  0.35687250  0.35218800  0.42818100  1
  H  169  1  0.34316950  0.39580250  0.36447650  1
  H  170  1  0.23747850  0.45741950  0.42365850  1
  H  171  1  0.52411850  0.45299950  0.36322650  1
  H  172  1  0.13864800  0.36551200  0.49157700  1
  H  187  1  0.32430800  0.04463850  0.43520450  1
  H  196  1  0.28513150  0.07252250  0.35133450  1
  H  199  1  0.20769400  0.13626750  0.39484550  1
  H  200  1  0.16119500  0.07713700  0.45655300  1
  H  201  1  0.38702900  0.13761950  0.45226450  1
  H  202  1  0.13045050  0.00903450  0.36472550  1
  H  217  1  0.80333450  0.45698300  0.06475300  1
  H  226  1  0.70821300  0.42914450  0.14863950  1
  H  229  1  0.73784250  0.36539600  0.10512800  1
  H  230  1  0.69390850  0.42453850  0.04345850  1
  H  231  1  0.97604250  0.36398500  0.04770500  1
  H  232  1  0.50342750  0.49269650  0.13535050  1
  H  494  1  0.16265150  0.96512400  0.89642600  1
  H  495  1  0.21497800  0.97100600  0.91829200  1
  H  496  1  0.17210350  0.00302100  0.90019800  1
  H  498  1  0.83838450  0.03628300  0.10370300  1
  H  499  1  0.82908050  0.99837900  0.09981200  1
  H  500  1  0.78584050  0.03044850  0.08193950  1
  H  502  1  0.10413800  0.04019600  0.00990700  1
  H  504  1  0.89652750  0.96146300  0.99008500  1
  H  518  1  0.02319850  0.53595000  0.60384600  1
  H  519  1  0.10325350  0.53021750  0.58198850  1
  H  520  1  0.07447650  0.49808900  0.59989400  1
  H  522  1  0.97775650  0.46584850  0.39605050  1
  H  523  1  0.92649950  0.50371500  0.40012700  1
  H  524  1  0.89763650  0.47152800  0.41780200  1
  H  526  1  0.15356600  0.46144150  0.48999550  1
  H  528  1  0.84712700  0.54009150  0.51004750  1
  H  542  1  0.12689150  0.89697900  0.53522700  1
  H  543  1  0.18521050  0.91876650  0.52948350  1
  H  544  1  0.17416950  0.90093450  0.49735550  1
  H  546  1  0.87390350  0.10466250  0.46478550  1
  H  547  1  0.82662600  0.10070750  0.50265650  1
  H  548  1  0.81558600  0.08287350  0.47052950  1
  H  550  1  0.14363100  0.01077250  0.46066950  1
  H  552  1  0.85716650  0.99086650  0.53934150  1
  H  566  1  0.55865600  0.60448100  0.96440400  1
  H  567  1  0.63295950  0.58269250  0.97021850  1
  H  568  1  0.57194550  0.60064000  0.00228800  1
  H  570  1  0.44217400  0.39709000  0.03552200  1
  H  571  1  0.42888350  0.40093100  0.99763800  1
  H  572  1  0.36787300  0.41888000  0.02970700  1
  H  574  1  0.61421900  0.49089950  0.03929850  1
  H  576  1  0.38660050  0.51067450  0.96063350  1
  H  590  1  0.31289250  0.59576850  0.53578750  1
  H  591  1  0.27012650  0.56779950  0.53330450  1
  H  592  1  0.30151000  0.58758000  0.49939100  1
  H  594  1  0.68762400  0.40575700  0.46454300  1
  H  595  1  0.69884800  0.41403550  0.50094850  1
  H  596  1  0.73060150  0.43364450  0.46698350  1
  H  598  1  0.40064350  0.47678100  0.46723700  1
  H  600  1  0.60015000  0.52486750  0.53285250  1
  H  614  1  0.44371350  0.90604350  0.96380750  1
  H  615  1  0.37051550  0.93403550  0.96631850  1
  H  616  1  0.38766250  0.91412450  0.00019250  1
  H  618  1  0.55700550  0.09565500  0.03601400  1
  H  619  1  0.61299500  0.08747800  0.99962100  1
  H  620  1  0.63029250  0.06774500  0.03354900  1
  H  622  1  0.34382200  0.02481950  0.03271050  1
  H  624  1  0.65706200  0.97676400  0.96732300  1
  H  638  1  0.34880800  0.96512200  0.59502600  1
  H  639  1  0.30342500  0.96758600  0.56711900  1
  H  640  1  0.30106500  0.00152100  0.58681700  1
  H  642  1  0.65199250  0.03649200  0.40497500  1
  H  643  1  0.69973900  0.00009400  0.41318200  1
  H  644  1  0.69737500  0.03402850  0.43288250  1
  H  646  1  0.36778100  0.03359850  0.47600550  1
  H  648  1  0.63301950  0.96801750  0.52399250  1
  H  662  1  0.90796000  0.53666850  0.90505650  1
  H  663  1  0.83716550  0.53416950  0.93296950  1
  H  664  1  0.88842300  0.50026200  0.91321100  1
  H  666  1  0.09279900  0.46495700  0.09494800  1
  H  667  1  0.11233600  0.50136350  0.08679250  1
  H  668  1  0.16359150  0.46745750  0.06703550  1
  H  670  1  0.87657550  0.46801800  0.02396400  1
  H  672  1  0.12419450  0.53359900  0.97603600  1
  H  878  1  0.92214100  0.81135500  0.76286800  1
  H  879  1  0.95005900  0.82157350  0.72354550  1
  H  880  1  0.88253400  0.80563150  0.73461050  1
  H  882  1  0.62750600  0.03004400  0.75693300  1
  H  883  1  0.66787250  0.03588000  0.78482400  1
  H  884  1  0.60043600  0.01990250  0.79635750  1
  H  886  1  0.77456900  0.90530850  0.68667950  1
  H  888  1  0.79285800  0.93942050  0.82750750  1
  H  902  1  0.49528600  0.69029000  0.73733500  1
  H  903  1  0.49413400  0.68000350  0.77664050  1
  H  904  1  0.42171050  0.69595700  0.76560000  1
  H  906  1  0.41339000  0.47164050  0.74281350  1
  H  907  1  0.48747950  0.46582900  0.71492100  1
  H  908  1  0.41560000  0.48187650  0.70340950  1
  H  910  1  0.36556300  0.59626200  0.81327700  1
  H  912  1  0.55876600  0.56238950  0.67245850  1
  H  926  1  0.73308250  0.76370400  0.68954100  1
  H  927  1  0.77127000  0.72438450  0.67932750  1
  H  928  1  0.68781400  0.73541650  0.69530850  1
  H  930  1  0.65664450  0.75758950  0.47097350  1
  H  931  1  0.70277750  0.78551250  0.46509850  1
  H  932  1  0.61937350  0.79700850  0.48111050  1
  H  934  1  0.67929350  0.68741750  0.59569950  1
  H  936  1  0.73136500  0.82831200  0.56148100  1
  H  950  1  0.18472350  0.73789100  0.81052800  1
  H  951  1  0.17334550  0.77721000  0.82074800  1
  H  952  1  0.11685600  0.76615700  0.80481900  1
  H  954  1  0.88425950  0.74381800  0.02924500  1
  H  955  1  0.95251250  0.71592100  0.03507500  1
  H  956  1  0.89660300  0.70439700  0.01909600  1
  H  958  1  0.96109250  0.81409650  0.90450250  1
  H  960  1  0.12020800  0.67322000  0.93857500  1
  H  974  1  0.07853050  0.19026400  0.23715800  1
  H  975  1  0.05064100  0.18004450  0.27648150  1
  H  976  1  0.11815600  0.19599250  0.26540550  1
  H  978  1  0.37328350  0.97159850  0.24305950  1
  H  979  1  0.33289950  0.96575400  0.21517800  1
  H  980  1  0.40031750  0.98174350  0.20363350  1
  H  982  1  0.22619350  0.09632600  0.31332500  1
  H  984  1  0.20783350  0.06220150  0.17251150  1
  H  998  1  0.50500450  0.31144200  0.26272600  1
  H  999  1  0.50615750  0.32170900  0.22341700  1
  H  1000  1  0.57857250  0.30571650  0.23445350  1
  H  1002  1  0.58764700  0.52995350  0.25703950  1
  H  1003  1  0.51357150  0.53581850  0.28494750  1
  H  1004  1  0.58545100  0.51974000  0.29644700  1
  H  1006  1  0.63507050  0.40532300  0.18668400  1
  H  1008  1  0.44206300  0.43938250  0.32752350  1
  H  1022  1  0.26776400  0.23795700  0.31048800  1
  H  1023  1  0.22962400  0.27727700  0.32071700  1
  H  1024  1  0.31306700  0.26623050  0.30470550  1
  H  1026  1  0.34448050  0.24397350  0.52900750  1
  H  1027  1  0.29831650  0.21606350  0.53488350  1
  H  1028  1  0.38171850  0.20455200  0.51886600  1
  H  1030  1  0.32175200  0.31419050  0.40431350  1
  H  1032  1  0.26959450  0.17331250  0.43852650  1
  H  1046  1  0.81617700  0.26367550  0.18943650  1
  H  1047  1  0.82760400  0.22435650  0.17920450  1
  H  1048  1  0.88406450  0.23542350  0.19514350  1
  H  1050  1  0.11664950  0.25785350  0.97073350  1
  H  1051  1  0.04837350  0.28573800  0.96490700  1
  H  1052  1  0.10426250  0.29727450  0.98089050  1
  H  1054  1  0.03987000  0.18752650  0.09545350  1
  H  1056  1  0.88064150  0.32838600  0.06140700  1
  N  487  1  0.06825050  0.97346650  0.94563850  1
  N  490  1  0.93245450  0.02817700  0.05435000  1
  N  501  1  0.05872000  0.04326700  0.01913900  1
  N  503  1  0.94193200  0.95840300  0.98084400  1
  N  511  1  0.98640800  0.52783450  0.55455150  1
  N  514  1  0.01431000  0.47371700  0.44548900  1
  N  525  1  0.12044300  0.45848300  0.48071200  1
  N  527  1  0.88024500  0.54304050  0.51933450  1
  N  535  1  0.04090800  0.94634000  0.52716300  1
  N  538  1  0.95989050  0.05530000  0.47284900  1
  N  549  1  0.10123950  0.02005400  0.45768800  1
  N  551  1  0.89955700  0.98158750  0.54232350  1
  N  559  1  0.51380850  0.55516800  0.97262600  1
  N  562  1  0.48702550  0.44640300  0.02729700  1
  N  573  1  0.57807200  0.48164900  0.04233900  1
  N  575  1  0.42274750  0.51992550  0.95759050  1
  N  583  1  0.41943600  0.55323050  0.52622750  1
  N  586  1  0.58129900  0.44843500  0.47388000  1
  N  597  1  0.44685100  0.47128450  0.46260350  1
  N  599  1  0.55394850  0.53039000  0.53747000  1
  N  607  1  0.49812300  0.94850150  0.97360950  1
  N  610  1  0.50272950  0.05305350  0.02644050  1
  N  621  1  0.37984050  0.03027000  0.03745500  1
  N  623  1  0.62103600  0.97129300  0.96261200  1
  N  631  1  0.44573250  0.97459650  0.55239550  1
  N  634  1  0.55506850  0.02701450  0.44760550  1
  N  645  1  0.40934450  0.03824300  0.47049600  1
  N  647  1  0.59145800  0.96337100  0.52950500  1
  N  655  1  0.97180750  0.52711250  0.94765750  1
  N  658  1  0.02895100  0.47451350  0.05234650  1
  N  669  1  0.91728050  0.46334600  0.02946700  1
  N  671  1  0.08348600  0.53827450  0.97053250  1
  N  871  1  0.84876500  0.86687300  0.77480700  1
  N  874  1  0.70134200  0.97465950  0.74479850  1
  N  885  1  0.77339300  0.92441600  0.69665000  1
  N  887  1  0.78752150  0.91997900  0.82077100  1
  N  895  1  0.48942850  0.63478900  0.72529300  1
  N  898  1  0.41978550  0.52697600  0.75507400  1
  N  909  1  0.39333500  0.57712250  0.80332250  1
  N  911  1  0.52712200  0.58179850  0.67920250  1
  N  919  1  0.71507600  0.77560200  0.63404200  1
  N  922  1  0.67523200  0.74549650  0.52634050  1
  N  933  1  0.69721300  0.69738300  0.57658500  1
  N  935  1  0.70664600  0.82155200  0.58092700  1
  N  943  1  0.12331900  0.72595050  0.86605350  1
  N  946  1  0.94595950  0.75595800  0.97386000  1
  N  957  1  0.96979100  0.80410200  0.92361400  1
  N  959  1  0.10803500  0.67997450  0.91915750  1
  N  967  1  0.15192350  0.13474800  0.22521300  1
  N  970  1  0.29942100  0.02697700  0.25520200  1
  N  981  1  0.22736850  0.07721700  0.30335800  1
  N  983  1  0.21316450  0.08164550  0.17924650  1
  N  991  1  0.51105350  0.36692350  0.27471950  1
  N  994  1  0.58108100  0.47463250  0.24483250  1
  N  1005  1  0.60733400  0.42447300  0.19663000  1
  N  1007  1  0.47359050  0.41994150  0.32077650  1
  N  1015  1  0.28585700  0.22603200  0.36596700  1
  N  1018  1  0.32587700  0.25608300  0.47364600  1
  N  1029  1  0.30384900  0.30421400  0.42342400  1
  N  1031  1  0.29429550  0.18006850  0.41907350  1
  N  1039  1  0.87757450  0.27564150  0.13391750  1
  N  1042  1  0.05496800  0.24569200  0.02611200  1
  N  1053  1  0.03117500  0.19752600  0.07634400  1
  N  1055  1  0.89281250  0.32163300  0.08082400  1
  O  8  1  0.65943200  0.93289700  0.87299600  1
  O  15  1  0.01961100  0.86482650  0.96896350  1
  O  17  1  0.87235700  0.88093300  0.87316700  1
  O  18  1  0.85891350  0.95148300  0.94396400  1
  O  27  1  0.98875100  0.81079400  0.97215300  1
  O  28  1  0.03452100  0.91981650  0.96548750  1
  O  29  1  0.75247900  0.87441300  0.83705100  1
  O  30  1  0.58477150  0.95855450  0.92224750  1
  O  38  1  0.46398450  0.56902750  0.62695350  1
  O  45  1  0.85276450  0.63659300  0.53122000  1
  O  47  1  0.62548800  0.62068200  0.62697600  1
  O  48  1  0.75333600  0.55004450  0.55620050  1
  O  57  1  0.77115500  0.69066350  0.52798450  1
  O  58  1  0.91899550  0.58157600  0.53476100  1
  O  59  1  0.46266500  0.62741200  0.66308500  1
  O  60  1  0.46437450  0.54334200  0.57769800  1
  O  68  1  0.59133950  0.87380600  0.56798300  1
  O  75  1  0.88363150  0.96979400  0.63588900  1
  O  77  1  0.75235950  0.87395300  0.61991800  1
  O  78  1  0.80955250  0.94472800  0.54927700  1
  O  87  1  0.79879900  0.97299700  0.68993100  1
  O  88  1  0.95364850  0.96604950  0.58090350  1
  O  89  1  0.62626150  0.83773750  0.62656950  1
  O  90  1  0.54213300  0.92312100  0.54249600  1
  O  98  1  0.03237550  0.62784150  0.93203450  1
  O  105  1  0.48845100  0.53170200  0.86399800  1
  O  107  1  0.24550250  0.62760700  0.88007200  1
  O  108  1  0.30284200  0.55682250  0.95068250  1
  O  117  1  0.46075450  0.52854650  0.80997450  1
  O  118  1  0.49993750  0.53527950  0.91896650  1
  O  119  1  0.08941450  0.66367950  0.87353150  1
  O  120  1  0.00692300  0.57855350  0.95758350  1
  O  128  1  0.34130600  0.06873550  0.12704750  1
  O  135  1  0.98125750  0.13683250  0.03101450  1
  O  137  1  0.12840000  0.12066650  0.12681250  1
  O  138  1  0.14185700  0.05013500  0.05602100  1
  O  147  1  0.01221850  0.19084400  0.02779900  1
  O  148  1  0.96619250  0.08186400  0.03459700  1
  O  149  1  0.24823100  0.12720450  0.16296350  1
  O  150  1  0.41599900  0.04304500  0.07782900  1
  O  158  1  0.53669700  0.43275450  0.37307550  1
  O  165  1  0.14819850  0.36494350  0.46876750  1
  O  167  1  0.37533800  0.38100300  0.37305900  1
  O  168  1  0.24742050  0.45156800  0.44386000  1
  O  177  1  0.22990450  0.31090600  0.47202500  1
  O  178  1  0.08190450  0.41994000  0.46515400  1
  O  179  1  0.53780750  0.37425300  0.33686100  1
  O  180  1  0.53640900  0.45832650  0.42237050  1
  O  188  1  0.40950900  0.12780300  0.43201000  1
  O  195  1  0.11715350  0.03184200  0.36412100  1
  O  197  1  0.24848300  0.12767500  0.38007400  1
  O  198  1  0.19125250  0.05690750  0.45072650  1
  O  207  1  0.20198800  0.02863100  0.31008000  1
  O  208  1  0.04714250  0.03559000  0.41911000  1
  O  209  1  0.37457450  0.16386650  0.37339750  1
  O  210  1  0.45867300  0.07849200  0.45751300  1
  O  218  1  0.96842050  0.37378150  0.06797250  1
  O  225  1  0.51230900  0.46989000  0.13593200  1
  O  227  1  0.75529300  0.37397800  0.11989600  1
  O  228  1  0.69796750  0.44476100  0.04927200  1
  O  237  1  0.53999150  0.47306350  0.18995850  1
  O  238  1  0.50086050  0.46630500  0.08096000  1
  O  239  1  0.91138700  0.33793350  0.12646050  1
  O  240  1  0.99385000  0.42307050  0.04241850  1
  O  488  1  0.11579600  0.00590050  0.96335850  1
  O  492  1  0.88489900  0.99574650  0.03663550  1
  O  512  1  0.08421450  0.49553450  0.53670150  1
  O  516  1  0.91650100  0.50601000  0.46333500  1
  O  536  1  0.12090950  0.96412850  0.49483250  1
  O  540  1  0.87988650  0.03751300  0.50518000  1
  O  560  1  0.57917400  0.53746150  0.00501750  1
  O  564  1  0.42165650  0.46411000  0.99490800  1
  O  584  1  0.37711650  0.52743350  0.49763650  1
  O  588  1  0.62363150  0.47422300  0.50246900  1
  O  608  1  0.40137300  0.97423700  0.00220900  1
  O  612  1  0.59948450  0.02732350  0.99784550  1
  O  632  1  0.37475350  0.00318700  0.52663700  1
  O  636  1  0.62605000  0.99842300  0.47336100  1
  O  656  1  0.90369850  0.49848950  0.97338050  1
  O  660  1  0.09706350  0.50313500  0.02662400  1
  O  872  1  0.84173650  0.86901500  0.72433000  1
  O  876  1  0.70979950  0.97269400  0.79497900  1
  O  896  1  0.43409800  0.63255550  0.77576350  1
  O  900  1  0.47644400  0.52903050  0.70490350  1
  O  920  1  0.71027750  0.72510600  0.63193900  1
  O  924  1  0.68161900  0.79569800  0.52827200  1
  O  944  1  0.06583050  0.77643150  0.86820750  1
  O  948  1  0.00458600  0.70577350  0.97188550  1
  O  968  1  0.15898200  0.13261100  0.27568600  1
  O  972  1  0.29092400  0.02893850  0.20502850  1
  O  992  1  0.56637850  0.36909850  0.22423850  1
  O  996  1  0.52444400  0.47263700  0.29501500  1
  O  1016  1  0.29071500  0.27651800  0.36807200  1
  O  1020  1  0.31943700  0.20589100  0.47171200  1
  O  1040  1  0.93511500  0.22517000  0.13175400  1
  O  1044  1  0.99629200  0.29586600  0.02809700  1
