# generated using pymatgen
data_H5C5N2
_symmetry_space_group_name_H-M   'P 1'
_cell_length_a   10.01993333
_cell_length_b   21.54530000
_cell_length_c   21.54530000
_cell_angle_alpha   120.00000000
_cell_angle_beta   90.00000000
_cell_angle_gamma   90.00000000
_symmetry_Int_Tables_number   1
_chemical_formula_structural   H5C5N2
_chemical_formula_sum   'H30 C30 N12'
_cell_volume   4028.10288788
_cell_formula_units_Z   6
loop_
 _symmetry_equiv_pos_site_id
 _symmetry_equiv_pos_as_xyz
  1  'x, y, z'
loop_
 _atom_site_type_symbol
 _atom_site_label
 _atom_site_symmetry_multiplicity
 _atom_site_fract_x
 _atom_site_fract_y
 _atom_site_fract_z
 _atom_site_occupancy
  C  1  1  0.12761500  0.61972350  0.35580450  1
  C  3  1  0.12758100  0.64817750  0.26292750  1
  C  5  1  0.12760600  0.74106150  0.38425850  1
  C  7  1  0.11876800  0.62703700  0.18650600  1
  C  10  1  0.11885800  0.81747900  0.43954200  1
  C  13  1  0.11896700  0.56445100  0.37696000  1
  C  16  1  0.87844300  0.38625500  0.64619400  1
  C  18  1  0.87830000  0.35778000  0.73905600  1
  C  20  1  0.87833000  0.26491150  0.61771750  1
  C  22  1  0.88703700  0.37890650  0.81547450  1
  C  25  1  0.88706100  0.18849300  0.56242600  1
  C  28  1  0.88719600  0.44153900  0.62505800  1
  C  31  1  0.87686300  0.46975950  0.98337950  1
  C  32  1  0.93257500  0.49212450  0.05126150  1
  C  33  1  0.05863800  0.52564900  0.06945100  1
  C  34  1  0.12893300  0.53617750  0.01860850  1
  C  35  1  0.07321900  0.51382050  0.95072750  1
  C  36  1  0.94715700  0.48029300  0.93253900  1
  C  45  1  0.87710200  0.51860950  0.53423450  1
  C  46  1  0.93283900  0.56414100  0.51189400  1
  C  47  1  0.05889800  0.54879700  0.47836300  1
  C  48  1  0.12917300  0.48741750  0.46781750  1
  C  49  1  0.07345300  0.44189500  0.49017500  1
  C  50  1  0.94738000  0.45722850  0.52369150  1
  C  59  1  0.87690600  0.02058850  0.48536350  1
  C  60  1  0.93265500  0.95271400  0.43984300  1
  C  61  1  0.05870300  0.93453450  0.45520450  1
  C  62  1  0.12896200  0.98537850  0.51658950  1
  C  63  1  0.07321400  0.05325300  0.56210900  1
  C  64  1  0.94715700  0.07143100  0.54675300  1
  H  8  1  0.20594300  0.64788300  0.17227200  1
  H  9  1  0.02962600  0.65281900  0.18031100  1
  H  11  1  0.20606300  0.83169900  0.47460100  1
  H  12  1  0.02974100  0.82369000  0.47153900  1
  H  14  1  0.20618900  0.52940800  0.35610900  1
  H  15  1  0.02986000  0.53243350  0.35118650  1
  H  23  1  0.97615300  0.35311800  0.82168700  1
  H  24  1  0.79983000  0.35806050  0.82968450  1
  H  26  1  0.97619200  0.18227950  0.53043550  1
  H  27  1  0.79986500  0.17429050  0.52735850  1
  H  29  1  0.97630300  0.47354050  0.65085850  1
  H  30  1  0.79998500  0.47659450  0.64589450  1
  H  37  1  0.22066900  0.56019050  0.03092050  1
  H  38  1  0.88034500  0.48433150  0.08760850  1
  H  39  1  0.78513500  0.44574150  0.97106650  1
  H  40  1  0.12545800  0.52160050  0.91437650  1
  H  42  1  0.20024000  0.52443650  0.13455250  1
  H  44  1  0.80556300  0.48150550  0.86743450  1
  H  51  1  0.22089100  0.47570350  0.44378750  1
  H  52  1  0.88060900  0.60827900  0.51968000  1
  H  53  1  0.78537000  0.53031250  0.55824650  1
  H  54  1  0.12565500  0.39773850  0.48235950  1
  H  56  1  0.20049600  0.61510050  0.47954450  1
  H  58  1  0.80576800  0.39090700  0.52245200  1
  H  65  1  0.22067900  0.97306950  0.52831050  1
  H  66  1  0.88044400  0.91636050  0.39569750  1
  H  67  1  0.78518600  0.03289600  0.47364400  1
  H  68  1  0.12541900  0.08960300  0.60625800  1
  H  70  1  0.20033000  0.86944150  0.38890450  1
  H  72  1  0.80551900  0.13652450  0.61304150  1
  N  2  1  0.12678700  0.59917650  0.28509150  1
  N  4  1  0.12675300  0.71889150  0.31309350  1
  N  6  1  0.12682200  0.69089050  0.40480150  1
  N  17  1  0.87919200  0.40678950  0.71690450  1
  N  19  1  0.87911200  0.28706750  0.68887950  1
  N  21  1  0.87921100  0.31509200  0.59718600  1
  N  41  1  0.10917700  0.54813600  0.13866300  1
  N  43  1  0.89662300  0.45780600  0.86332300  1
  N  55  1  0.10942100  0.59551500  0.45586200  1
  N  57  1  0.89682100  0.41049100  0.54616100  1
  N  69  1  0.10926700  0.86532300  0.40848400  1
  N  71  1  0.89659800  0.14064100  0.59347500  1
