# generated using pymatgen
data_CdH9C10N3O4
_symmetry_space_group_name_H-M   'P 1'
_cell_length_a   13.17844000
_cell_length_b   14.07737000
_cell_length_c   19.07519000
_cell_angle_alpha   90.00000000
_cell_angle_beta   90.30350000
_cell_angle_gamma   90.00000000
_symmetry_Int_Tables_number   1
_chemical_formula_structural   CdH9C10N3O4
_chemical_formula_sum   'Cd8 H72 C80 N24 O32'
_cell_volume   3538.73717644
_cell_formula_units_Z   8
loop_
 _symmetry_equiv_pos_site_id
 _symmetry_equiv_pos_as_xyz
  1  'x, y, z'
loop_
 _atom_site_type_symbol
 _atom_site_label
 _atom_site_symmetry_multiplicity
 _atom_site_fract_x
 _atom_site_fract_y
 _atom_site_fract_z
 _atom_site_occupancy
  Cd  Cd1  1  0.14130000  0.55315000  0.65976000  1.0
  Cd  Cd2  1  0.35870000  0.55315000  0.34024000  1.0
  Cd  Cd3  1  0.35757000  0.05431000  0.16020000  1.0
  Cd  Cd4  1  0.14242000  0.05431000  0.83981000  1.0
  Cd  Cd5  1  0.64243000  0.94569000  0.83981000  1.0
  Cd  Cd6  1  0.85758000  0.94569000  0.16020000  1.0
  Cd  Cd7  1  0.85870000  0.44685000  0.34024000  1.0
  Cd  Cd8  1  0.64130000  0.44685000  0.65976000  1.0
  H  H1  1  0.78199000  0.15206000  0.72863000  1.0
  H  H2  1  0.90940000  0.04773000  0.78595000  1.0
  H  H3  1  0.13380000  0.25330000  0.76825000  1.0
  H  H4  1  0.43302000  0.96167000  0.99853000  1.0
  H  H5  1  0.41033000  0.87294000  0.06292000  1.0
  H  H6  1  0.30771000  0.08531000  0.97588000  1.0
  H  H7  1  0.34300000  0.96298000  0.89218000  1.0
  H  H8  1  0.25054000  0.87305000  0.87322000  1.0
  H  H9  1  0.21607000  0.75167000  0.95930000  1.0
  H  H10  1  0.71801000  0.15206000  0.27138000  1.0
  H  H11  1  0.59060000  0.04773000  0.21405000  1.0
  H  H12  1  0.36620000  0.25330000  0.23175000  1.0
  H  H13  1  0.06697000  0.96167000  0.00148000  1.0
  H  H14  1  0.08967000  0.87294000  0.93708000  1.0
  H  H15  1  0.19229000  0.08531000  0.02413000  1.0
  H  H16  1  0.15700000  0.96298000  0.10782000  1.0
  H  H17  1  0.24946000  0.87305000  0.12679000  1.0
  H  H18  1  0.28392000  0.75167000  0.04070000  1.0
  H  H19  1  0.71662000  0.65165000  0.22805000  1.0
  H  H20  1  0.59035000  0.54698000  0.28554000  1.0
  H  H21  1  0.36613000  0.75342000  0.26940000  1.0
  H  H22  1  0.06690000  0.46147000  0.49745000  1.0
  H  H23  1  0.08989000  0.37267000  0.56196000  1.0
  H  H24  1  0.19225000  0.58510000  0.47547000  1.0
  H  H25  1  0.15677000  0.46309000  0.39178000  1.0
  H  H26  1  0.24893000  0.37301000  0.37314000  1.0
  H  H27  1  0.28381000  0.25154000  0.45952000  1.0
  H  H28  1  0.78338000  0.65165000  0.77196000  1.0
  H  H29  1  0.90965000  0.54698000  0.71446000  1.0
  H  H30  1  0.13387000  0.75342000  0.73061000  1.0
  H  H31  1  0.43310000  0.46147000  0.50256000  1.0
  H  H32  1  0.41011000  0.37267000  0.43804000  1.0
  H  H33  1  0.30775000  0.58510000  0.52454000  1.0
  H  H34  1  0.34323000  0.46309000  0.60822000  1.0
  H  H35  1  0.25107000  0.37301000  0.62687000  1.0
  H  H36  1  0.21618000  0.25154000  0.54048000  1.0
  H  H37  1  0.28338000  0.34835000  0.77196000  1.0
  H  H38  1  0.40965000  0.45302000  0.71446000  1.0
  H  H39  1  0.63387000  0.24658000  0.73061000  1.0
  H  H40  1  0.93310000  0.53853000  0.50256000  1.0
  H  H41  1  0.91011000  0.62733000  0.43804000  1.0
  H  H42  1  0.80775000  0.41490000  0.52453000  1.0
  H  H43  1  0.84323000  0.53691000  0.60822000  1.0
  H  H44  1  0.75107000  0.62699000  0.62687000  1.0
  H  H45  1  0.71618000  0.74846000  0.54048000  1.0
  H  H46  1  0.21662000  0.34835000  0.22805000  1.0
  H  H47  1  0.09035000  0.45302000  0.28554000  1.0
  H  H48  1  0.86613000  0.24658000  0.26940000  1.0
  H  H49  1  0.56690000  0.53853000  0.49745000  1.0
  H  H50  1  0.58989000  0.62733000  0.56196000  1.0
  H  H51  1  0.69225000  0.41490000  0.47547000  1.0
  H  H52  1  0.65677000  0.53691000  0.39178000  1.0
  H  H53  1  0.74893000  0.62699000  0.37314000  1.0
  H  H54  1  0.78382000  0.74846000  0.45952000  1.0
  H  H55  1  0.21801000  0.84794000  0.27138000  1.0
  H  H56  1  0.09060000  0.95226000  0.21405000  1.0
  H  H57  1  0.86620000  0.74670000  0.23175000  1.0
  H  H58  1  0.56698000  0.03833000  0.00148000  1.0
  H  H59  1  0.58967000  0.12706000  0.93708000  1.0
  H  H60  1  0.69229000  0.91469000  0.02413000  1.0
  H  H61  1  0.65700000  0.03702000  0.10782000  1.0
  H  H62  1  0.74946000  0.12695000  0.12679000  1.0
  H  H63  1  0.78393000  0.24833000  0.04070000  1.0
  H  H64  1  0.28199000  0.84794000  0.72863000  1.0
  H  H65  1  0.40940000  0.95226000  0.78595000  1.0
  H  H66  1  0.63380000  0.74670000  0.76825000  1.0
  H  H67  1  0.93302000  0.03833000  0.99853000  1.0
  H  H68  1  0.91033000  0.12706000  0.06292000  1.0
  H  H69  1  0.80771000  0.91469000  0.97588000  1.0
  H  H70  1  0.84300000  0.03702000  0.89218000  1.0
  H  H71  1  0.75054000  0.12695000  0.87322000  1.0
  H  H72  1  0.71608000  0.24833000  0.95930000  1.0
  C  C1  1  0.03520000  0.88623000  0.80526000  1.0
  C  C2  1  0.99190000  0.79516000  0.77679000  1.0
  C  C3  1  0.89000000  0.76818000  0.78612000  1.0
  C  C4  1  0.80750000  0.33511000  0.68665000  1.0
  C  C5  1  0.86058000  0.67707000  0.76432000  1.0
  C  C6  1  0.93013000  0.61844000  0.73112000  1.0
  C  C7  1  0.05557000  0.23273000  0.75819000  1.0
  C  C8  1  0.12515000  0.91633000  0.97786000  1.0
  C  C9  1  0.21529000  0.91662000  0.08533000  1.0
  C  C10  1  0.46479000  0.88623000  0.19474000  1.0
  C  C11  1  0.50810000  0.79516000  0.22321000  1.0
  C  C12  1  0.61000000  0.76818000  0.21388000  1.0
  C  C13  1  0.69250000  0.33511000  0.31336000  1.0
  C  C14  1  0.63942000  0.67707000  0.23568000  1.0
  C  C15  1  0.56988000  0.61844000  0.26888000  1.0
  C  C16  1  0.44443000  0.23273000  0.24181000  1.0
  C  C17  1  0.37485000  0.91633000  0.02214000  1.0
  C  C18  1  0.28471000  0.91662000  0.91467000  1.0
  C  C19  1  0.46532000  0.38573000  0.30576000  1.0
  C  C20  1  0.50905000  0.29495000  0.27755000  1.0
  C  C21  1  0.61139000  0.26845000  0.28672000  1.0
  C  C22  1  0.69086000  0.83397000  0.18678000  1.0
  C  C23  1  0.64056000  0.17755000  0.26442000  1.0
  C  C24  1  0.57043000  0.11901000  0.23112000  1.0
  C  C25  1  0.44407000  0.73283000  0.25897000  1.0
  C  C26  1  0.37482000  0.41613000  0.47863000  1.0
  C  C27  1  0.28492000  0.41656000  0.58552000  1.0
  C  C28  1  0.03468000  0.38573000  0.69425000  1.0
  C  C29  1  0.99095000  0.29495000  0.72245000  1.0
  C  C30  1  0.88861000  0.26845000  0.71328000  1.0
  C  C31  1  0.80914000  0.83397000  0.81322000  1.0
  C  C32  1  0.85944000  0.17755000  0.73558000  1.0
  C  C33  1  0.92957000  0.11901000  0.76888000  1.0
  C  C34  1  0.05593000  0.73283000  0.74103000  1.0
  C  C35  1  0.12518000  0.41613000  0.52138000  1.0
  C  C36  1  0.21508000  0.41656000  0.41448000  1.0
  C  C37  1  0.25000000  0.03998000  0.00000000  1.0
  C  C38  1  0.25000000  0.79689000  0.00000000  1.0
  C  C39  1  0.25000000  0.53980000  0.50000000  1.0
  C  C40  1  0.25000000  0.29677000  0.50000000  1.0
  C  C41  1  0.53468000  0.61427000  0.69425000  1.0
  C  C42  1  0.49095000  0.70504000  0.72245000  1.0
  C  C43  1  0.38861000  0.73155000  0.71328000  1.0
  C  C44  1  0.30913000  0.16603000  0.81322000  1.0
  C  C45  1  0.35944000  0.82245000  0.73558000  1.0
  C  C46  1  0.42957000  0.88099000  0.76888000  1.0
  C  C47  1  0.55593000  0.26717000  0.74103000  1.0
  C  C48  1  0.62518000  0.58387000  0.52138000  1.0
  C  C49  1  0.71508000  0.58344000  0.41448000  1.0
  C  C50  1  0.96532000  0.61427000  0.30576000  1.0
  C  C51  1  0.00905000  0.70504000  0.27755000  1.0
  C  C52  1  0.11138000  0.73155000  0.28672000  1.0
  C  C53  1  0.19086000  0.16603000  0.18678000  1.0
  C  C54  1  0.14055000  0.82245000  0.26442000  1.0
  C  C55  1  0.07043000  0.88099000  0.23112000  1.0
  C  C56  1  0.94407000  0.26717000  0.25897000  1.0
  C  C57  1  0.87482000  0.58387000  0.47863000  1.0
  C  C58  1  0.78492000  0.58344000  0.58552000  1.0
  C  C59  1  0.96480000  0.11377000  0.19474000  1.0
  C  C60  1  0.00810000  0.20483000  0.22321000  1.0
  C  C61  1  0.11000000  0.23182000  0.21388000  1.0
  C  C62  1  0.19250000  0.66489000  0.31336000  1.0
  C  C63  1  0.13942000  0.32293000  0.23568000  1.0
  C  C64  1  0.06987000  0.38156000  0.26888000  1.0
  C  C65  1  0.94443000  0.76727000  0.24181000  1.0
  C  C66  1  0.87485000  0.08367000  0.02214000  1.0
  C  C67  1  0.78471000  0.08338000  0.91467000  1.0
  C  C68  1  0.53521000  0.11377000  0.80526000  1.0
  C  C69  1  0.49190000  0.20483000  0.77679000  1.0
  C  C70  1  0.38999000  0.23182000  0.78612000  1.0
  C  C71  1  0.30750000  0.66489000  0.68665000  1.0
  C  C72  1  0.36058000  0.32293000  0.76432000  1.0
  C  C73  1  0.43012000  0.38156000  0.73112000  1.0
  C  C74  1  0.55557000  0.76727000  0.75819000  1.0
  C  C75  1  0.62515000  0.08367000  0.97786000  1.0
  C  C76  1  0.71529000  0.08338000  0.08533000  1.0
  C  C77  1  0.75000000  0.46020000  0.50000000  1.0
  C  C78  1  0.75000000  0.70323000  0.50000000  1.0
  C  C79  1  0.75000000  0.96002000  0.00000000  1.0
  C  C80  1  0.75000000  0.20311000  0.00000000  1.0
  N  N1  1  0.02606000  0.64702000  0.71748000  1.0
  N  N2  1  0.20292000  0.97953000  0.94441000  1.0
  N  N3  1  0.16997000  0.85602000  0.03181000  1.0
  N  N4  1  0.47393000  0.64702000  0.28252000  1.0
  N  N5  1  0.29708000  0.97953000  0.05560000  1.0
  N  N6  1  0.33003000  0.85602000  0.96819000  1.0
  N  N7  1  0.47406000  0.14722000  0.21786000  1.0
  N  N8  1  0.29703000  0.47930000  0.44471000  1.0
  N  N9  1  0.33014000  0.35585000  0.53234000  1.0
  N  N10  1  0.02593000  0.14722000  0.78214000  1.0
  N  N11  1  0.20297000  0.47930000  0.55529000  1.0
  N  N12  1  0.16986000  0.35585000  0.46767000  1.0
  N  N13  1  0.52593000  0.85277000  0.78214000  1.0
  N  N14  1  0.70297000  0.52070000  0.55529000  1.0
  N  N15  1  0.66986000  0.64415000  0.46767000  1.0
  N  N16  1  0.97407000  0.85277000  0.21786000  1.0
  N  N17  1  0.79703000  0.52070000  0.44471000  1.0
  N  N18  1  0.83014000  0.64415000  0.53234000  1.0
  N  N19  1  0.97394000  0.35298000  0.28252000  1.0
  N  N20  1  0.79708000  0.02047000  0.05560000  1.0
  N  N21  1  0.83003000  0.14398000  0.96819000  1.0
  N  N22  1  0.52606000  0.35298000  0.71748000  1.0
  N  N23  1  0.70292000  0.02047000  0.94441000  1.0
  N  N24  1  0.66997000  0.14398000  0.03181000  1.0
  O  O1  1  0.12433000  0.90945000  0.78421000  1.0
  O  O2  1  0.98486000  0.43319000  0.64933000  1.0
  O  O3  1  0.75762000  0.31349000  0.63193000  1.0
  O  O4  1  0.78775000  0.40604000  0.72590000  1.0
  O  O5  1  0.37567000  0.90945000  0.21580000  1.0
  O  O6  1  0.51514000  0.43319000  0.35067000  1.0
  O  O7  1  0.74238000  0.31349000  0.36807000  1.0
  O  O8  1  0.71225000  0.40604000  0.27411000  1.0
  O  O9  1  0.37624000  0.40898000  0.28405000  1.0
  O  O10  1  0.51486000  0.93353000  0.15020000  1.0
  O  O11  1  0.73855000  0.81082000  0.13188000  1.0
  O  O12  1  0.71267000  0.90495000  0.22574000  1.0
  O  O13  1  0.12376000  0.40898000  0.71595000  1.0
  O  O14  1  0.98514000  0.93353000  0.84980000  1.0
  O  O15  1  0.76145000  0.81082000  0.86813000  1.0
  O  O16  1  0.78733000  0.90495000  0.77426000  1.0
  O  O17  1  0.62376000  0.59102000  0.71595000  1.0
  O  O18  1  0.48514000  0.06646000  0.84980000  1.0
  O  O19  1  0.26145000  0.18918000  0.86813000  1.0
  O  O20  1  0.28733000  0.09505000  0.77426000  1.0
  O  O21  1  0.87624000  0.59102000  0.28405000  1.0
  O  O22  1  0.01486000  0.06646000  0.15020000  1.0
  O  O23  1  0.23855000  0.18918000  0.13188000  1.0
  O  O24  1  0.21267000  0.09505000  0.22575000  1.0
  O  O25  1  0.87567000  0.09055000  0.21580000  1.0
  O  O26  1  0.01514000  0.56681000  0.35067000  1.0
  O  O27  1  0.24238000  0.68651000  0.36807000  1.0
  O  O28  1  0.21225000  0.59396000  0.27411000  1.0
  O  O29  1  0.62433000  0.09055000  0.78421000  1.0
  O  O30  1  0.48486000  0.56681000  0.64933000  1.0
  O  O31  1  0.25762000  0.68651000  0.63193000  1.0
  O  O32  1  0.28775000  0.59396000  0.72590000  1.0
