# generated using pymatgen
data_Dy2CuH12C32(NO6)4
_symmetry_space_group_name_H-M   'P 1'
_cell_length_a   10.27622000
_cell_length_b   10.51123000
_cell_length_c   11.47994000
_cell_angle_alpha   82.86838000
_cell_angle_beta   74.25010000
_cell_angle_gamma   70.43229000
_symmetry_Int_Tables_number   1
_chemical_formula_structural   Dy2CuH12C32(NO6)4
_chemical_formula_sum   'Dy2 Cu1 H12 C32 N4 O24'
_cell_volume   1123.77628592
_cell_formula_units_Z   1
loop_
 _symmetry_equiv_pos_site_id
 _symmetry_equiv_pos_as_xyz
  1  'x, y, z'
loop_
 _atom_site_type_symbol
 _atom_site_label
 _atom_site_symmetry_multiplicity
 _atom_site_fract_x
 _atom_site_fract_y
 _atom_site_fract_z
 _atom_site_occupancy
  Dy  Dy1  1  0.58580000  0.59285000  0.63674000  1.0
  Dy  Dy2  1  0.41858000  0.40632000  0.36124000  1.0
  Cu  Cu1  1  0.00004000  0.49958000  0.49975000  1.0
  H  H1  1  0.37428000  0.98067000  0.46863000  1.0
  H  H2  1  0.98822000  0.17756000  0.35183000  1.0
  H  H3  1  0.17426000  0.74358000  0.33890000  1.0
  H  H4  1  0.66388000  0.48793000  0.94777000  1.0
  H  H5  1  0.91328000  0.32601000  0.21095000  1.0
  H  H6  1  0.12317000  0.33626000  0.82938000  1.0
  H  H7  1  0.62578000  0.01812000  0.53124000  1.0
  H  H8  1  0.01174000  0.82266000  0.64814000  1.0
  H  H9  1  0.82512000  0.25639000  0.66087000  1.0
  H  H10  1  0.33622000  0.51229000  0.05173000  1.0
  H  H11  1  0.08707000  0.67349000  0.78856000  1.0
  H  H12  1  0.87730000  0.66381000  0.17005000  1.0
  C  C1  1  0.28393000  0.84831000  0.40871000  1.0
  C  C2  1  0.29032000  0.97456000  0.43077000  1.0
  C  C3  1  0.18442000  0.09233000  0.40850000  1.0
  C  C4  1  0.07327000  0.08586000  0.36345000  1.0
  C  C5  1  0.07369000  0.96087000  0.33585000  1.0
  C  C6  1  0.17697000  0.84121000  0.35797000  1.0
  C  C7  1  0.38780000  0.71985000  0.44280000  1.0
  C  C8  1  0.18045000  0.22992000  0.43342000  1.0
  C  C9  1  0.89428000  0.41977000  0.87574000  1.0
  C  C10  1  0.76820000  0.44297000  0.96807000  1.0
  C  C11  1  0.77780000  0.40617000  0.08802000  1.0
  C  C12  1  0.90968000  0.35032000  0.11691000  1.0
  C  C13  1  0.03237000  0.32513000  0.02291000  1.0
  C  C14  1  0.02704000  0.35779000  0.90264000  1.0
  C  C15  1  0.89162000  0.45689000  0.74628000  1.0
  C  C16  1  0.64904000  0.41341000  0.18731000  1.0
  C  C17  1  0.71576000  0.15157000  0.59066000  1.0
  C  C18  1  0.70961000  0.02510000  0.56877000  1.0
  C  C19  1  0.81539000  0.90743000  0.59150000  1.0
  C  C20  1  0.92651000  0.91418000  0.63646000  1.0
  C  C21  1  0.92591000  0.03925000  0.66390000  1.0
  C  C22  1  0.82258000  0.15881000  0.64143000  1.0
  C  C23  1  0.61095000  0.27948000  0.55703000  1.0
  C  C24  1  0.81953000  0.76968000  0.56687000  1.0
  C  C25  1  0.10590000  0.57991000  0.12394000  1.0
  C  C26  1  0.23186000  0.55721000  0.03171000  1.0
  C  C27  1  0.22202000  0.59379000  0.91195000  1.0
  C  C28  1  0.09048000  0.64962000  0.88272000  1.0
  C  C29  1  0.96792000  0.67500000  0.97673000  1.0
  C  C30  1  0.97333000  0.64214000  0.09689000  1.0
  C  C31  1  0.10832000  0.54170000  0.25338000  1.0
  C  C32  1  0.35114000  0.58579000  0.81290000  1.0
  N  N1  1  0.95683000  0.95626000  0.28659000  1.0
  N  N2  1  0.17234000  0.26352000  0.05094000  1.0
  N  N3  1  0.04277000  0.04377000  0.71326000  1.0
  N  N4  1  0.82801000  0.73655000  0.94896000  1.0
  O  O1  1  0.37305000  0.60774000  0.42497000  1.0
  O  O2  1  0.48395000  0.72600000  0.48916000  1.0
  O  O3  1  0.29545000  0.25449000  0.42565000  1.0
  O  O4  1  0.05479000  0.31371000  0.45933000  1.0
  O  O5  1  0.87073000  0.06519000  0.26294000  1.0
  O  O6  1  0.95062000  0.84314000  0.27329000  1.0
  O  O7  1  0.01008000  0.44637000  0.66962000  1.0
  O  O8  1  0.77170000  0.49445000  0.71858000  1.0
  O  O9  1  0.52641000  0.44746000  0.16306000  1.0
  O  O10  1  0.66061000  0.37899000  0.29600000  1.0
  O  O11  1  0.17608000  0.25065000  0.15929000  1.0
  O  O12  1  0.27843000  0.22964000  0.96472000  1.0
  O  O13  1  0.62473000  0.39184000  0.57575000  1.0
  O  O14  1  0.51638000  0.27092000  0.51019000  1.0
  O  O15  1  0.70460000  0.74477000  0.57431000  1.0
  O  O16  1  0.94479000  0.68571000  0.54094000  1.0
  O  O17  1  0.12888000  0.93491000  0.73685000  1.0
  O  O18  1  0.04893000  0.15691000  0.72666000  1.0
  O  O19  1  0.98944000  0.55358000  0.33004000  1.0
  O  O20  1  0.22796000  0.50174000  0.28134000  1.0
  O  O21  1  0.47225000  0.55777000  0.83823000  1.0
  O  O22  1  0.33983000  0.61438000  0.70361000  1.0
  O  O23  1  0.82412000  0.74943000  0.84041000  1.0
  O  O24  1  0.72202000  0.77042000  0.03494000  1.0
