# generated using pymatgen
data_CaH18(CO)10
_symmetry_space_group_name_H-M   'P 1'
_cell_length_a   11.83292000
_cell_length_b   11.91047000
_cell_length_c   11.91057000
_cell_angle_alpha   89.97107000
_cell_angle_beta   89.84586000
_cell_angle_gamma   89.84631000
_symmetry_Int_Tables_number   1
_chemical_formula_structural   CaH18(CO)10
_chemical_formula_sum   'Ca4 H72 C40 O40'
_cell_volume   1678.61146849
_cell_formula_units_Z   4
loop_
 _symmetry_equiv_pos_site_id
 _symmetry_equiv_pos_as_xyz
  1  'x, y, z'
loop_
 _atom_site_type_symbol
 _atom_site_label
 _atom_site_symmetry_multiplicity
 _atom_site_fract_x
 _atom_site_fract_y
 _atom_site_fract_z
 _atom_site_occupancy
  Ca  Ca0  1  0.00001000  0.78112000  0.21888000  1
  Ca  Ca1  1  0.50000000  0.21828000  0.78172000  1
  Ca  Ca2  1  0.25004000  0.71876000  0.71838000  1
  Ca  Ca3  1  0.74997000  0.28162000  0.28124000  1
  H  H4  1  0.20151000  0.96604000  0.09078000  1
  H  H5  1  0.19022000  0.85537000  0.91889000  1
  H  H6  1  0.22567000  0.64895000  0.06791000  1
  H  H7  1  0.40409000  0.62669000  0.98027000  1
  H  H8  1  0.41235000  0.74283000  0.13952000  1
  H  H9  1  0.50000000  0.80951000  0.03767000  1
  H  H10  1  0.20854000  0.75125000  0.20540000  1
  H  H11  1  0.02449000  0.83492000  0.95231000  1
  H  H12  1  0.10646000  0.63303000  0.90915000  1
  H  H13  1  0.70265000  0.03452000  0.90866000  1
  H  H14  1  0.69049000  0.14454000  0.08106000  1
  H  H15  1  0.72568000  0.35135000  0.93266000  1
  H  H16  1  0.90331000  0.37367000  0.01950000  1
  H  H17  1  0.91227000  0.25716000  0.86003000  1
  H  H18  1  0.00024000  0.19067000  0.96158000  1
  H  H19  1  0.70844000  0.24959000  0.79498000  1
  H  H20  1  0.52468000  0.16475000  0.04760000  1
  H  H21  1  0.60458000  0.36516000  0.09109000  1
  H  H22  1  0.45222000  0.59088000  0.53420000  1
  H  H23  1  0.43936000  0.41945000  0.64517000  1
  H  H24  1  0.47650000  0.56892000  0.85079000  1
  H  H25  1  0.65354000  0.47868000  0.87281000  1
  H  H26  1  0.66119000  0.63888000  0.75600000  1
  H  H27  1  0.75014000  0.53697000  0.69073000  1
  H  H28  1  0.45893000  0.70549000  0.74823000  1
  H  H29  1  0.27399000  0.45489000  0.66608000  1
  H  H30  1  0.35458000  0.41009000  0.86554000  1
  H  H31  1  0.95084000  0.40792000  0.46576000  1
  H  H32  1  0.94107000  0.57950000  0.35545000  1
  H  H33  1  0.98108000  0.43068000  0.14948000  1
  H  H34  1  0.15801000  0.52031000  0.12940000  1
  H  H35  1  0.16276000  0.35979000  0.24333000  1
  H  H36  1  0.25123000  0.45915000  0.31230000  1
  H  H37  1  0.95778000  0.29381000  0.25120000  1
  H  H38  1  0.77607000  0.54832000  0.33028000  1
  H  H39  1  0.85888000  0.58940000  0.13315000  1
  H  H40  1  0.04916000  0.53424000  0.59208000  1
  H  H41  1  0.05893000  0.64455000  0.42050000  1
  H  H42  1  0.01893000  0.85052000  0.56932000  1
  H  H43  1  0.84200000  0.87060000  0.47969000  1
  H  H44  1  0.83724000  0.75667000  0.64021000  1
  H  H45  1  0.74877000  0.68770000  0.54085000  1
  H  H46  1  0.04222000  0.74880000  0.70619000  1
  H  H47  1  0.22394000  0.66972000  0.45169000  1
  H  H48  1  0.14113000  0.86685000  0.41060000  1
  H  H49  1  0.54778000  0.46580000  0.40913000  1
  H  H50  1  0.56064000  0.35483000  0.58055000  1
  H  H51  1  0.52350000  0.14921000  0.43108000  1
  H  H52  1  0.34646000  0.12719000  0.52132000  1
  H  H53  1  0.33881000  0.24400000  0.36112000  1
  H  H54  1  0.24986000  0.30927000  0.46303000  1
  H  H55  1  0.54107000  0.25177000  0.29451000  1
  H  H56  1  0.72601000  0.33392000  0.54511000  1
  H  H57  1  0.64543000  0.13446000  0.58991000  1
  H  H58  1  0.79850000  0.90922000  0.03397000  1
  H  H59  1  0.80978000  0.08110000  0.14463000  1
  H  H60  1  0.77434000  0.93209000  0.35105000  1
  H  H61  1  0.59591000  0.01973000  0.37331000  1
  H  H62  1  0.58765000  0.86048000  0.25717000  1
  H  H63  1  0.50001000  0.96233000  0.19049000  1
  H  H64  1  0.79147000  0.79460000  0.24875000  1
  H  H65  1  0.97551000  0.04769000  0.16508000  1
  H  H66  1  0.89355000  0.09085000  0.36697000  1
  H  H67  1  0.29735000  0.09134000  0.96548000  1
  H  H68  1  0.30951000  0.91894000  0.85546000  1
  H  H69  1  0.27432000  0.06734000  0.64865000  1
  H  H70  1  0.09670000  0.98050000  0.62633000  1
  H  H71  1  0.08773000  0.13997000  0.74284000  1
  H  H72  1  0.99976000  0.03843000  0.80933000  1
  H  H73  1  0.29156000  0.20503000  0.75041000  1
  H  H74  1  0.47532000  0.95240000  0.83525000  1
  H  H75  1  0.39542000  0.90891000  0.63484000  1
  C  C76  1  0.23537000  0.88010000  0.09211000  1
  C  C77  1  0.18131000  0.81090000  0.99867000  1
  C  C78  1  0.23715000  0.69630000  0.98954000  1
  C  C79  1  0.36462000  0.71019000  0.96568000  1
  C  C80  1  0.41267000  0.78633000  0.05786000  1
  C  C81  1  0.73635000  0.12031000  0.90768000  1
  C  C82  1  0.68160000  0.18921000  0.00135000  1
  C  C83  1  0.73689000  0.30374000  0.01092000  1
  C  C84  1  0.86463000  0.29004000  0.03433000  1
  C  C85  1  0.91285000  0.21384000  0.94179000  1
  C  C86  1  0.48597000  0.59215000  0.61990000  1
  C  C87  1  0.43116000  0.49930000  0.68982000  1
  C  C88  1  0.48693000  0.48990000  0.80413000  1
  C  C89  1  0.61420000  0.46481000  0.78937000  1
  C  C90  1  0.66247000  0.55693000  0.71312000  1
  C  C91  1  0.98542000  0.40602000  0.38015000  1
  C  C92  1  0.93281000  0.50009000  0.31028000  1
  C  C93  1  0.99038000  0.50959000  0.19644000  1
  C  C94  1  0.11730000  0.53433000  0.21241000  1
  C  C95  1  0.16387000  0.44066000  0.28830000  1
  C  C96  1  0.01459000  0.61985000  0.59398000  1
  C  C97  1  0.06720000  0.68973000  0.49991000  1
  C  C98  1  0.00963000  0.80356000  0.49041000  1
  C  C99  1  0.88271000  0.78760000  0.46567000  1
  C  C100  1  0.83614000  0.71170000  0.55934000  1
  C  C101  1  0.51403000  0.38010000  0.40786000  1
  C  C102  1  0.56884000  0.31018000  0.50070000  1
  C  C103  1  0.51307000  0.19587000  0.51010000  1
  C  C104  1  0.38580000  0.21063000  0.53519000  1
  C  C105  1  0.33754000  0.28688000  0.44307000  1
  C  C106  1  0.76463000  0.90789000  0.11990000  1
  C  C107  1  0.81869000  0.00133000  0.18910000  1
  C  C108  1  0.76285000  0.01046000  0.30370000  1
  C  C109  1  0.63539000  0.03431000  0.28981000  1
  C  C110  1  0.58734000  0.94214000  0.21367000  1
  C  C111  1  0.26365000  0.09232000  0.87969000  1
  C  C112  1  0.31839000  0.99865000  0.81079000  1
  C  C113  1  0.26312000  0.98909000  0.69626000  1
  C  C114  1  0.13537000  0.96567000  0.70996000  1
  C  C115  1  0.08715000  0.05821000  0.78616000  1
  O  O116  1  0.21149000  0.83688000  0.20088000  1
  O  O117  1  0.06010000  0.79987000  0.01738000  1
  O  O118  1  0.18819000  0.63359000  0.89780000  1
  O  O119  1  0.38376000  0.74931000  0.85657000  1
  O  O120  1  0.35292000  0.89218000  0.06877000  1
  O  O121  1  0.71374000  0.16405000  0.79903000  1
  O  O122  1  0.56025000  0.20025000  0.98278000  1
  O  O123  1  0.68630000  0.36629000  0.10241000  1
  O  O124  1  0.88533000  0.25082000  0.14314000  1
  O  O125  1  0.85358000  0.10794000  0.93153000  1
  O  O126  1  0.46321000  0.70156000  0.66269000  1
  O  O127  1  0.30994000  0.51887000  0.70238000  1
  O  O128  1  0.43636000  0.39955000  0.86824000  1
  O  O129  1  0.63389000  0.35591000  0.74923000  1
  O  O130  1  0.60323000  0.56653000  0.60694000  1
  O  O131  1  0.96080000  0.29746000  0.33693000  1
  O  O132  1  0.81175000  0.48213000  0.29713000  1
  O  O133  1  0.94070000  0.60020000  0.13196000  1
  O  O134  1  0.13629000  0.64349000  0.25171000  1
  O  O135  1  0.10290000  0.42854000  0.39366000  1
  O  O136  1  0.03921000  0.66307000  0.70254000  1
  O  O137  1  0.18826000  0.70288000  0.51787000  1
  O  O138  1  0.05931000  0.86804000  0.39980000  1
  O  O139  1  0.86372000  0.74829000  0.35651000  1
  O  O140  1  0.89710000  0.60634000  0.57146000  1
  O  O141  1  0.53679000  0.33731000  0.29844000  1
  O  O142  1  0.69006000  0.29762000  0.48113000  1
  O  O143  1  0.56364000  0.13176000  0.60045000  1
  O  O144  1  0.36611000  0.25077000  0.64409000  1
  O  O145  1  0.39677000  0.39306000  0.43347000  1
  O  O146  1  0.78852000  0.79912000  0.16313000  1
  O  O147  1  0.93991000  0.98262000  0.20013000  1
  O  O148  1  0.81181000  0.10220000  0.36641000  1
  O  O149  1  0.61624000  0.14343000  0.25070000  1
  O  O150  1  0.64708000  0.93123000  0.10782000  1
  O  O151  1  0.28626000  0.20097000  0.83595000  1
  O  O152  1  0.43975000  0.01722000  0.79975000  1
  O  O153  1  0.31371000  0.89760000  0.63371000  1
  O  O154  1  0.11467000  0.85687000  0.74918000  1
  O  O155  1  0.14642000  0.06847000  0.89206000  1
