# generated using pymatgen
data_H6C12O
_symmetry_space_group_name_H-M   'P 1'
_cell_length_a   16.99170000
_cell_length_b   24.02077500
_cell_length_c   24.02080000
_cell_angle_alpha   120.00010328
_cell_angle_beta   90.00000000
_cell_angle_gamma   90.00000000
_symmetry_Int_Tables_number   1
_chemical_formula_structural   H6C12O
_chemical_formula_sum   'H72 C144 O12'
_cell_volume   8490.66085188
_cell_formula_units_Z   12
loop_
 _symmetry_equiv_pos_site_id
 _symmetry_equiv_pos_as_xyz
  1  'x, y, z'
loop_
 _atom_site_type_symbol
 _atom_site_label
 _atom_site_symmetry_multiplicity
 _atom_site_fract_x
 _atom_site_fract_y
 _atom_site_fract_z
 _atom_site_occupancy
  C  1  1  0.96004200  0.95716900  0.48240100  1
  C  2  1  0.92085600  0.93570100  0.42241500  1
  C  3  1  0.87207300  0.88068450  0.39328450  1
  C  4  1  0.85880800  0.84760350  0.42717950  1
  C  5  1  0.87256900  0.87970750  0.49418750  1
  C  6  1  0.92323500  0.93434050  0.52117650  1
  C  11  1  0.96003400  0.49403850  0.01804050  1
  C  12  1  0.85831600  0.54800150  0.12729950  1
  C  13  1  0.87269700  0.58317700  0.09564400  1
  C  14  1  0.92334500  0.55572150  0.04102550  1
  C  16  1  0.06070200  0.50647050  0.94819550  1
  C  20  1  0.95991600  0.49277000  0.48094400  1
  C  21  1  0.92077500  0.55281000  0.51947000  1
  C  22  1  0.87195200  0.58198600  0.49363200  1
  C  23  1  0.85855000  0.54806750  0.42666450  1
  C  26  1  0.05822700  0.50952700  0.56852000  1
  C  29  1  0.52160400  0.95752350  0.48315550  1
  C  30  1  0.55831500  0.93480850  0.52208050  1
  C  31  1  0.60884100  0.88009650  0.49510050  1
  C  32  1  0.62275200  0.84789800  0.42813600  1
  C  33  1  0.60943400  0.88071850  0.39404850  1
  C  34  1  0.56062400  0.93575750  0.42302750  1
  C  39  1  0.42091900  0.50684050  0.94803150  1
  C  41  1  0.52159200  0.49437750  0.01772350  1
  C  42  1  0.55835100  0.55596300  0.04033100  1
  C  43  1  0.60873600  0.58391800  0.09508400  1
  C  44  1  0.62314000  0.54886750  0.12691550  1
  C  48  1  0.42316200  0.50866950  0.56814850  1
  C  49  1  0.52145000  0.49214950  0.48047550  1
  C  50  1  0.62251200  0.54712650  0.42585250  1
  C  51  1  0.60917700  0.58133600  0.49276600  1
  C  52  1  0.56035300  0.55232750  0.51880350  1
  C  57  1  0.74071000  0.72091600  0.19582300  1
  C  58  1  0.67019500  0.68781050  0.16430850  1
  C  59  1  0.66811800  0.62968650  0.10476350  1
  C  60  1  0.74082800  0.60364650  0.07376550  1
  C  61  1  0.81342700  0.62900300  0.10530600  1
  C  62  1  0.81117600  0.68704950  0.16506350  1
  C  66  1  0.74063500  0.78116300  0.25602400  1
  C  67  1  0.67017500  0.81197400  0.28979500  1
  C  68  1  0.66776200  0.87166800  0.34785900  1
  C  69  1  0.74042800  0.90312100  0.37333200  1
  C  70  1  0.81320600  0.87208100  0.34762200  1
  C  71  1  0.81107500  0.81258300  0.28931700  1
  C  75  1  0.74065900  0.77942300  0.53131900  1
  C  76  1  0.67013900  0.81101100  0.52975700  1
  C  77  1  0.66829800  0.87071500  0.53139300  1
  C  78  1  0.74094700  0.90170900  0.53639700  1
  C  79  1  0.81333500  0.87010100  0.53044100  1
  C  80  1  0.81121000  0.81020650  0.52838850  1
  C  84  1  0.74058700  0.71914350  0.53122550  1
  C  85  1  0.67009300  0.68536600  0.52822500  1
  C  86  1  0.66762800  0.62732800  0.52996000  1
  C  87  1  0.74028100  0.60188000  0.53585000  1
  C  88  1  0.81306300  0.62763600  0.53076800  1
  C  89  1  0.81105000  0.68583500  0.52935500  1
  C  93  1  0.24069800  0.51888450  0.73337350  1
  C  94  1  0.17016100  0.51730200  0.70029900  1
  C  95  1  0.16803100  0.51879200  0.64221100  1
  C  96  1  0.24071300  0.52379850  0.61616750  1
  C  97  1  0.31333700  0.51760650  0.64148450  1
  C  98  1  0.31114100  0.51584400  0.69950500  1
  C  102  1  0.24066900  0.51885950  0.79358550  1
  C  103  1  0.17022600  0.51597050  0.82446050  1
  C  104  1  0.16786300  0.51754150  0.88412550  1
  C  105  1  0.24056000  0.52342100  0.91550200  1
  C  106  1  0.31330700  0.51801950  0.88439750  1
  C  107  1  0.31113000  0.51684200  0.82490500  1
  C  441  1  0.92082900  0.45537100  0.03936100  1
  C  442  1  0.87149700  0.48101900  0.09410100  1
  C  444  1  0.02170900  0.46809600  0.96995600  1
  C  445  1  0.05847400  0.40648400  0.94728200  1
  C  446  1  0.12287300  0.41350350  0.86038150  1
  C  447  1  0.10952000  0.48040600  0.89316400  1
  C  449  1  0.87237600  0.48109400  0.39188800  1
  C  450  1  0.92309300  0.45397900  0.41935300  1
  C  451  1  0.02140600  0.47056200  0.50695800  1
  C  452  1  0.10864000  0.48271400  0.59644600  1
  C  453  1  0.12304100  0.41583250  0.56138150  1
  C  454  1  0.06041900  0.41042500  0.46857800  1
  C  458  1  0.46016200  0.46831050  0.96946450  1
  C  459  1  0.37217700  0.48096150  0.89299250  1
  C  460  1  0.35895600  0.41397650  0.85988350  1
  C  461  1  0.42343300  0.40667650  0.94658450  1
  C  463  1  0.60958300  0.48198600  0.09444800  1
  C  464  1  0.56060000  0.45602300  0.03950100  1
  C  466  1  0.45983800  0.46999300  0.50645600  1
  C  467  1  0.42068500  0.40997950  0.46779950  1
  C  468  1  0.35826200  0.41464300  0.56044700  1
  C  469  1  0.37259500  0.48147700  0.59562600  1
  C  472  1  0.55828700  0.45319150  0.41890350  1
  C  473  1  0.60893900  0.48011450  0.39118050  1
  C  475  1  0.74059900  0.44350650  0.25402050  1
  C  476  1  0.67007100  0.44520000  0.28719100  1
  C  477  1  0.66818000  0.44376850  0.34533450  1
  C  478  1  0.74082800  0.43893700  0.37147900  1
  C  479  1  0.81337000  0.44480350  0.34580150  1
  C  480  1  0.81110400  0.44650200  0.28779600  1
  C  484  1  0.74061600  0.44340600  0.19374500  1
  C  485  1  0.67016500  0.44646450  0.16294250  1
  C  486  1  0.66803500  0.44468050  0.10313250  1
  C  487  1  0.74060500  0.43847450  0.07157850  1
  C  488  1  0.81324600  0.44340700  0.10259600  1
  C  489  1  0.81116200  0.44496400  0.16222600  1
  C  657  1  0.02151800  0.00539650  0.50460250  1
  C  658  1  0.05830100  0.02809350  0.46570750  1
  C  659  1  0.10874900  0.08281050  0.49268250  1
  C  660  1  0.12316400  0.11453450  0.55953350  1
  C  661  1  0.10959600  0.08195150  0.59385950  1
  C  662  1  0.06053400  0.02705150  0.56471550  1
  C  667  1  0.10916700  0.37878800  0.89266200  1
  C  670  1  0.10947600  0.38143350  0.49450250  1
  C  672  1  0.45995600  0.00563650  0.50528050  1
  C  673  1  0.42080200  0.02707800  0.56531400  1
  C  674  1  0.37148800  0.08184000  0.59436500  1
  C  675  1  0.35821400  0.11489300  0.56044900  1
  C  676  1  0.37251300  0.08310100  0.49360400  1
  C  677  1  0.42324400  0.02853750  0.46651850  1
  C  682  1  0.37275400  0.37905200  0.89196400  1
  C  685  1  0.37140900  0.38087200  0.49345900  1
  C  687  1  0.24074000  0.24161600  0.79188400  1
  C  688  1  0.17022900  0.27481600  0.82344400  1
  C  689  1  0.16830400  0.33285650  0.88311950  1
  C  690  1  0.24101900  0.35898350  0.91390550  1
  C  691  1  0.31346600  0.33325950  0.88243550  1
  C  692  1  0.31131200  0.27534500  0.82261100  1
  C  695  1  0.24064200  0.18136800  0.73168000  1
  C  696  1  0.17007900  0.15057500  0.69802100  1
  C  697  1  0.16779500  0.09078950  0.64009350  1
  C  698  1  0.24029500  0.05931850  0.61433050  1
  C  699  1  0.31301000  0.09020200  0.64026800  1
  C  700  1  0.31112100  0.14983150  0.69843150  1
  C  704  1  0.24075700  0.18345450  0.45610250  1
  C  705  1  0.17028500  0.15199000  0.45790500  1
  C  706  1  0.16817200  0.09247300  0.45662600  1
  C  707  1  0.24094800  0.06148150  0.45146850  1
  C  708  1  0.31354300  0.09296550  0.45732550  1
  C  709  1  0.31127100  0.15269450  0.45909450  1
  C  713  1  0.24066000  0.24360600  0.45594900  1
  C  714  1  0.17017300  0.27744100  0.45901500  1
  C  715  1  0.16795100  0.33545250  0.45719650  1
  C  716  1  0.24049500  0.36081500  0.45096400  1
  C  717  1  0.31317200  0.33474850  0.45586050  1
  C  718  1  0.31116800  0.27668050  0.45742750  1
  H  7  1  0.92403600  0.96202000  0.39988500  1
  H  8  1  0.81797300  0.81111700  0.40880200  1
  H  10  1  0.94801100  0.94429500  0.60321700  1
  H  15  1  0.81749000  0.56573000  0.16380700  1
  H  17  1  0.05735000  0.55530550  0.97426750  1
  H  19  1  0.94862300  0.62806600  0.03166100  1
  H  24  1  0.92397000  0.57532150  0.56831350  1
  H  25  1  0.81766600  0.56640850  0.40855550  1
  H  28  1  0.03365000  0.59176450  0.64044050  1
  H  35  1  0.66338000  0.81123100  0.40980500  1
  H  36  1  0.55732700  0.96185700  0.40028800  1
  H  38  1  0.53385100  0.94505800  0.60429300  1
  H  40  1  0.42403300  0.55568650  0.97439750  1
  H  45  1  0.66361900  0.56697500  0.16371700  1
  H  47  1  0.53373900  0.62785950  0.02998150  1
  H  53  1  0.66313800  0.56543850  0.40750450  1
  H  54  1  0.55702600  0.57507850  0.56763950  1
  H  56  1  0.44843900  0.59037950  0.64049050  1
  H  63  1  0.61697900  0.70329200  0.18610200  1
  H  64  1  0.86395800  0.70159500  0.18789900  1
  H  65  1  0.74086400  0.55749200  0.03543700  1
  H  72  1  0.61742700  0.78908350  0.27526350  1
  H  73  1  0.74061500  0.94129250  0.41958050  1
  H  74  1  0.86421200  0.79059200  0.27393600  1
  H  81  1  0.61692200  0.78915750  0.52324350  1
  H  82  1  0.86404700  0.78749100  0.52032700  1
  H  83  1  0.74077400  0.94012100  0.52868700  1
  H  90  1  0.61732000  0.70010250  0.52015450  1
  H  91  1  0.74043500  0.55572000  0.52808000  1
  H  92  1  0.86422600  0.70128650  0.52292450  1
  H  99  1  0.11696700  0.51090700  0.71575700  1
  H  100  1  0.36395200  0.50760400  0.71405000  1
  H  101  1  0.24071300  0.51600850  0.57002650  1
  H  108  1  0.11744100  0.50773650  0.80164750  1
  H  109  1  0.24076600  0.51532700  0.95366200  1
  H  110  1  0.36422900  0.51012650  0.80283950  1
  H  443  1  0.92410000  0.40653600  0.01292000  1
  H  448  1  0.16349600  0.39515800  0.82371600  1
  H  455  1  0.16353400  0.39713600  0.57947500  1
  H  456  1  0.05708200  0.38773250  0.41973950  1
  H  462  1  0.31811500  0.39587100  0.82340000  1
  H  465  1  0.55730400  0.40718250  0.01335650  1
  H  470  1  0.42394600  0.38758750  0.41896250  1
  H  471  1  0.31747700  0.39583800  0.57818200  1
  H  481  1  0.61686700  0.45165400  0.27179200  1
  H  482  1  0.86388900  0.45480450  0.27327850  1
  H  483  1  0.74086800  0.44683300  0.41766600  1
  H  490  1  0.61741400  0.45490250  0.18585250  1
  H  491  1  0.74050400  0.44641250  0.03330050  1
  H  492  1  0.86434700  0.45135800  0.18408800  1
  H  493  1  0.24116600  0.40505600  0.95244400  1
  H  494  1  0.24036000  0.40703100  0.45889600  1
  H  663  1  0.16364600  0.15133250  0.57827950  1
  H  664  1  0.05717100  0.00083100  0.58732700  1
  H  666  1  0.03358900  0.01804600  0.38361100  1
  H  669  1  0.03399500  0.33452650  0.95754050  1
  H  671  1  0.94810600  0.37209550  0.34716550  1
  H  678  1  0.42406800  0.00069000  0.58776000  1
  H  679  1  0.31738800  0.15140000  0.57917400  1
  H  681  1  0.44861400  0.01911900  0.38480400  1
  H  684  1  0.44836100  0.33457300  0.95645900  1
  H  686  1  0.53395500  0.37090400  0.34699800  1
  H  693  1  0.11698500  0.25937300  0.80168900  1
  H  694  1  0.36415000  0.26061050  0.79991250  1
  H  701  1  0.11729100  0.17338250  0.71265250  1
  H  702  1  0.24040400  0.02092750  0.56815750  1
  H  703  1  0.36430600  0.17175050  0.71374050  1
  H  710  1  0.11712000  0.17391050  0.46444650  1
  H  711  1  0.36405000  0.17553300  0.46741000  1
  H  712  1  0.24102500  0.02312150  0.45925050  1
  H  719  1  0.11744100  0.26295400  0.46746600  1
  H  720  1  0.36437900  0.26121500  0.46378100  1
  O  9  1  0.92446000  0.97066500  0.58669300  1
  O  18  1  0.92497100  0.58525650  0.00503550  1
  O  27  1  0.05710000  0.57502900  0.59748400  1
  O  37  1  0.55722000  0.97132800  0.58758200  1
  O  46  1  0.55721000  0.58490850  0.00377450  1
  O  55  1  0.42473800  0.57419700  0.59769900  1
  O  457  1  0.92447700  0.38845900  0.39000900  1
  O  474  1  0.55725800  0.38769300  0.39001100  1
  O  665  1  0.05707600  0.99171100  0.40019800  1
  O  668  1  0.05734400  0.37751250  0.98381650  1
  O  680  1  0.42492100  0.99251550  0.40099450  1
  O  683  1  0.42472800  0.37742900  0.98285600  1
