# generated using pymatgen
data_H9C14(N3O2)2
_symmetry_space_group_name_H-M   'P 1'
_cell_length_a   26.43917500
_cell_length_b   26.43920000
_cell_length_c   27.11460000
_cell_angle_alpha   89.99990000
_cell_angle_beta   89.99980000
_cell_angle_gamma   59.99990616
_symmetry_Int_Tables_number   1
_chemical_formula_structural   H9C14(N3O2)2
_chemical_formula_sum   'H54 C84 N36 O24'
_cell_volume   16414.57462031
_cell_formula_units_Z   6
loop_
 _symmetry_equiv_pos_site_id
 _symmetry_equiv_pos_as_xyz
  1  'x, y, z'
loop_
 _atom_site_type_symbol
 _atom_site_label
 _atom_site_symmetry_multiplicity
 _atom_site_fract_x
 _atom_site_fract_y
 _atom_site_fract_z
 _atom_site_occupancy
  C  1  1  0.02137400  0.46771700  0.99446400  1
  C  2  1  0.05643800  0.43085600  0.95547300  1
  C  3  1  0.11745100  0.39386550  0.96021150  1
  C  4  1  0.14598200  0.39649150  0.00383400  1
  C  5  1  0.11296900  0.43686800  0.04205700  1
  C  6  1  0.05044900  0.47134600  0.03801900  1
  C  9  1  0.95895900  0.49880950  0.98826400  1
  C  10  1  0.92927400  0.54056300  0.94970400  1
  C  11  1  0.86759800  0.56512350  0.94246600  1
  C  12  1  0.83451700  0.55127950  0.97614650  1
  C  13  1  0.86326300  0.51245450  0.01631100  1
  C  14  1  0.92450800  0.48687200  0.02134800  1
  C  31  1  0.48900400  0.43696750  0.32784400  1
  C  32  1  0.45220900  0.43866750  0.28882800  1
  C  33  1  0.41518000  0.41469950  0.29361200  1
  C  34  1  0.41775000  0.38362750  0.33727100  1
  C  35  1  0.45811600  0.37629650  0.37549400  1
  C  36  1  0.49259000  0.40433750  0.37144500  1
  C  39  1  0.52008900  0.46829500  0.32162600  1
  C  40  1  0.56185700  0.45620750  0.28307100  1
  C  41  1  0.58641300  0.49332750  0.27582100  1
  C  42  1  0.57254700  0.54027900  0.30947400  1
  C  43  1  0.53373500  0.55035750  0.34964800  1
  C  44  1  0.50814600  0.51470050  0.35469300  1
  C  61  1  0.45823900  0.00013050  0.66115050  1
  C  62  1  0.45990700  0.03521600  0.62211400  1
  C  63  1  0.43601600  0.09620550  0.62693100  1
  C  64  1  0.40492400  0.12471950  0.67058000  1
  C  65  1  0.39757600  0.09169750  0.70880250  1
  C  66  1  0.42562100  0.02918250  0.70474700  1
  C  69  1  0.48957900  0.93771650  0.65493700  1
  C  70  1  0.47749300  0.90802750  0.61639100  1
  C  71  1  0.51463500  0.84635550  0.60912900  1
  C  72  1  0.56156700  0.81326700  0.64280400  1
  C  73  1  0.57162700  0.84201450  0.68297500  1
  C  74  1  0.53598100  0.90326050  0.68800700  1
  C  91  1  0.29264200  0.18252500  0.81234000  1
  C  92  1  0.27711400  0.18459950  0.86248200  1
  C  93  1  0.23171500  0.23571150  0.88500900  1
  C  94  1  0.19796200  0.28742700  0.85664200  1
  C  95  1  0.21248800  0.28561600  0.80570600  1
  C  97  1  0.25972300  0.23429550  0.78481200  1
  C  105  1  0.33805200  0.12968200  0.79195600  1
  C  107  1  0.15011500  0.33847000  0.87761250  1
  C  109  1  0.20378200  0.45092100  0.14561400  1
  C  110  1  0.20588900  0.46426650  0.19577900  1
  C  111  1  0.25703700  0.45845100  0.21832400  1
  C  112  1  0.30872500  0.44056650  0.18994100  1
  C  113  1  0.30686700  0.42800550  0.13897500  1
  C  115  1  0.25552000  0.43217550  0.11806000  1
  C  123  1  0.15093200  0.45838650  0.12521900  1
  C  125  1  0.35985700  0.43711500  0.21095900  1
  C  127  1  0.47221500  0.27138200  0.47903600  1
  C  128  1  0.48563600  0.25586900  0.52918300  1
  C  129  1  0.47988400  0.21048850  0.55170600  1
  C  130  1  0.46193900  0.17672450  0.52333400  1
  C  131  1  0.44924700  0.19124500  0.47239400  1
  C  133  1  0.45338300  0.23845200  0.45149800  1
  C  141  1  0.47964400  0.31679450  0.45865600  1
  C  143  1  0.45863700  0.12893600  0.54431500  1
  C  145  1  0.68156300  0.76271700  0.78535700  1
  C  146  1  0.70465900  0.76840800  0.83078600  1
  C  147  1  0.74582900  0.71936600  0.85876400  1
  C  148  1  0.76505200  0.66155850  0.84169600  1
  C  149  1  0.74308000  0.65524100  0.79546700  1
  C  151  1  0.70286400  0.70511350  0.76813300  1
  C  159  1  0.63837800  0.81254000  0.75945300  1
  C  161  1  0.79981600  0.61136950  0.87130700  1
  C  163  1  0.78398600  0.48178450  0.11869100  1
  C  164  1  0.78968600  0.45297400  0.16411300  1
  C  165  1  0.74064400  0.46085900  0.19209800  1
  C  166  1  0.68283400  0.49942250  0.17502600  1
  C  167  1  0.67651500  0.52770650  0.12879300  1
  C  169  1  0.72638500  0.51806400  0.10146000  1
  C  177  1  0.83380600  0.47516100  0.09279000  1
  C  179  1  0.63263900  0.51483000  0.20462600  1
  C  181  1  0.50310000  0.66030150  0.45202500  1
  C  182  1  0.47427900  0.68343250  0.49744000  1
  C  183  1  0.48217700  0.72458950  0.52541700  1
  C  184  1  0.52077000  0.74379750  0.50834900  1
  C  185  1  0.54903800  0.72183700  0.46211500  1
  C  187  1  0.53939900  0.68160250  0.43479400  1
  C  195  1  0.49647600  0.61710000  0.42613500  1
  C  197  1  0.53613200  0.77863100  0.53793500  1
  H  7  1  0.03661200  0.42684050  0.92445400  1
  H  16  1  0.94464200  0.45799700  0.04962900  1
  H  19  1  0.97748800  0.53983800  0.06884000  1
  H  20  1  0.03705400  0.52043100  0.10012200  1
  H  21  1  0.94107800  0.58628400  0.89381900  1
  H  22  1  0.00054900  0.54520750  0.92573400  1
  H  23  1  0.75262100  0.61309600  0.95279300  1
  H  24  1  0.75148600  0.57163650  0.99664600  1
  H  25  1  0.22638500  0.35883600  0.03804100  1
  H  26  1  0.22898500  0.33419950  0.98223750  1
  H  37  1  0.44821300  0.46249700  0.25780500  1
  H  46  1  0.47928400  0.52343800  0.38298500  1
  H  49  1  0.56106100  0.40880700  0.40224700  1
  H  50  1  0.54160700  0.36873600  0.43363300  1
  H  51  1  0.60762500  0.39863900  0.22722700  1
  H  52  1  0.56654700  0.38025400  0.25915100  1
  H  53  1  0.63424200  0.56053850  0.28600700  1
  H  54  1  0.59277700  0.60306650  0.32987700  1
  H  55  1  0.38004000  0.34096850  0.37154000  1
  H  56  1  0.35546700  0.36289150  0.31570700  1
  H  67  1  0.48382600  0.01539550  0.59112700  1
  H  76  1  0.54472200  0.92338950  0.71629400  1
  H  79  1  0.43022800  0.95618700  0.73562650  1
  H  80  1  0.39029600  0.01564700  0.76708200  1
  H  81  1  0.41981100  0.91975900  0.56068600  1
  H  82  1  0.40143300  0.97921950  0.59262500  1
  H  83  1  0.58183200  0.73131650  0.61931500  1
  H  84  1  0.62433300  0.73025150  0.66321050  1
  H  85  1  0.36223500  0.20510350  0.70482550  1
  H  86  1  0.38419200  0.20773150  0.64900000  1
  H  96  1  0.29933300  0.14783700  0.88369650  1
  H  98  1  0.26889300  0.23462300  0.74822750  1
  H  106  1  0.35681500  0.09360200  0.81404500  1
  H  108  1  0.11929800  0.37003200  0.85535800  1
  H  114  1  0.16914600  0.47875100  0.21700700  1
  H  116  1  0.25582800  0.42273600  0.08146400  1
  H  124  1  0.11486400  0.47561150  0.14731400  1
  H  126  1  0.39126500  0.43671700  0.18870900  1
  H  132  1  0.50016600  0.27809200  0.55040800  1
  H  134  1  0.44387600  0.24763650  0.41491900  1
  H  142  1  0.49694800  0.33558000  0.48074800  1
  H  144  1  0.45799300  0.09810900  0.52200900  1
  H  150  1  0.68993100  0.80931550  0.84499400  1
  H  152  1  0.68851400  0.69858100  0.73506300  1
  H  160  1  0.62347300  0.85317700  0.77418500  1
  H  162  1  0.79617200  0.57506550  0.86546500  1
  H  168  1  0.83059000  0.42685350  0.17834500  1
  H  170  1  0.71984800  0.53894600  0.06839000  1
  H  178  1  0.87444300  0.44943050  0.10752400  1
  H  180  1  0.59634100  0.55478050  0.19877700  1
  H  186  1  0.44814200  0.66866900  0.51167200  1
  H  188  1  0.56027100  0.66725700  0.40172000  1
  H  196  1  0.47071300  0.60222750  0.44085800  1
  H  198  1  0.57607200  0.77500250  0.53207800  1
  N  8  1  0.20526000  0.36068250  0.00823900  1
  N  15  1  0.77481700  0.57945450  0.97366300  1
  N  17  1  0.01869000  0.51218050  0.07296850  1
  N  18  1  0.95977200  0.55759150  0.91986100  1
  N  27  1  0.82988000  0.50391900  0.05016300  1
  N  28  1  0.84124300  0.60442650  0.90474900  1
  N  29  1  0.14596900  0.44005450  0.07962300  1
  N  30  1  0.15048800  0.35372400  0.92525500  1
  N  38  1  0.38191400  0.36019550  0.34171500  1
  N  45  1  0.60071300  0.57180800  0.30697400  1
  N  47  1  0.53341600  0.39531200  0.40638200  1
  N  48  1  0.57891600  0.40865350  0.25325700  1
  N  57  1  0.52521800  0.59226850  0.38350500  1
  N  58  1  0.62572000  0.48036700  0.23810700  1
  N  59  1  0.46131200  0.34011500  0.41307200  1
  N  60  1  0.37511200  0.42168500  0.25862700  1
  N  68  1  0.38151000  0.18398550  0.67502050  1
  N  75  1  0.59309100  0.75357450  0.64029100  1
  N  77  1  0.41659800  0.99740750  0.73971050  1
  N  78  1  0.42995000  0.93852850  0.58655800  1
  N  87  1  0.61354600  0.80862150  0.71682500  1
  N  88  1  0.50166900  0.82000300  0.57142200  1
  N  89  1  0.36138700  0.12468700  0.74637450  1
  N  90  1  0.44310000  0.12925750  0.59197600  1
  N  99  1  0.21684600  0.23316850  0.93485000  1
  N  100  1  0.18216300  0.33678750  0.77658200  1
  N  117  1  0.25453000  0.47573400  0.26820100  1
  N  118  1  0.35802700  0.40717850  0.10983600  1
  N  135  1  0.49727300  0.19562800  0.60155300  1
  N  136  1  0.42838600  0.16094400  0.44325500  1
  N  153  1  0.76268700  0.72767450  0.90633400  1
  N  154  1  0.76496800  0.59870800  0.77493500  1
  N  171  1  0.74895500  0.43571300  0.23967800  1
  N  172  1  0.61998100  0.56232300  0.10825800  1
  N  189  1  0.45699700  0.74144100  0.57298600  1
  N  190  1  0.58365700  0.74374700  0.44156600  1
  O  101  1  0.25908300  0.21969700  0.96349700  1
  O  102  1  0.21548400  0.35491750  0.76214100  1
  O  103  1  0.19910300  0.19743950  0.94064650  1
  O  104  1  0.15834100  0.32873150  0.73965750  1
  O  119  1  0.24101700  0.44693850  0.29677600  1
  O  120  1  0.37611200  0.35576300  0.09532000  1
  O  121  1  0.21885100  0.52920300  0.27407600  1
  O  122  1  0.34997800  0.43912350  0.07296300  1
  O  137  1  0.46851100  0.23787750  0.63018950  1
  O  138  1  0.37695000  0.19428600  0.42879000  1
  O  139  1  0.55074700  0.17785900  0.60736400  1
  O  140  1  0.46028200  0.13709950  0.40634100  1
  O  155  1  0.71981700  0.75134150  0.93524650  1
  O  156  1  0.79349200  0.59271500  0.73613000  1
  O  157  1  0.78715400  0.75792650  0.90493700  1
  O  158  1  0.72501500  0.58754050  0.76563000  1
  O  173  1  0.77261400  0.45493450  0.26857700  1
  O  174  1  0.61400900  0.53977850  0.06945200  1
  O  175  1  0.77921600  0.38099200  0.23829800  1
  O  176  1  0.60878700  0.61345100  0.09894900  1
  O  191  1  0.47618900  0.69857100  0.60189600  1
  O  192  1  0.56110500  0.77224617  0.40276000  1
  O  193  1  0.40227600  0.76592050  0.57158400  1
  O  194  1  0.63478200  0.70381100  0.43225300  1
