# generated using pymatgen
data_Sm2H27C48N3(OF)12
_symmetry_space_group_name_H-M   'P 1'
_cell_length_a   27.58680000
_cell_length_b   28.20500000
_cell_length_c   32.88150000
_cell_angle_alpha   84.86030000
_cell_angle_beta   89.89860000
_cell_angle_gamma   89.39870000
_symmetry_Int_Tables_number   1
_chemical_formula_structural   Sm2H27C48N3(OF)12
_chemical_formula_sum   'Sm8 H108 C192 N12 O48 F48'
_cell_volume   25480.34282024
_cell_formula_units_Z   4
loop_
 _symmetry_equiv_pos_site_id
 _symmetry_equiv_pos_as_xyz
  1  'x, y, z'
loop_
 _atom_site_type_symbol
 _atom_site_label
 _atom_site_symmetry_multiplicity
 _atom_site_fract_x
 _atom_site_fract_y
 _atom_site_fract_z
 _atom_site_occupancy
  Sm  Sm1  1  0.76484000  0.05029000  0.94583000  1.0
  Sm  Sm2  1  0.95373000  0.28958000  0.30504000  1.0
  Sm  Sm3  1  0.22987000  0.97709000  0.51728000  1.0
  Sm  Sm4  1  0.97822000  0.22327000  0.72784000  1.0
  Sm  Sm5  1  0.85002000  0.72284000  0.22847000  1.0
  Sm  Sm6  1  0.66597000  0.96651000  0.51405000  1.0
  Sm  Sm7  1  0.96569000  0.77952000  0.80579000  1.0
  Sm  Sm8  1  0.22892000  0.93609000  0.03548000  1.0
  H  H1  1  0.65478000  0.92569000  0.95176000  1.0
  H  H2  1  0.67782000  0.91928000  0.00273000  1.0
  H  H3  1  0.46384000  0.04191000  0.02383000  1.0
  H  H4  1  0.49081000  0.03988000  0.07296000  1.0
  H  H5  1  0.39061000  0.99853000  0.02529000  1.0
  H  H6  1  0.37081000  0.87315000  0.10829000  1.0
  H  H7  1  0.49451000  0.87452000  0.15203000  1.0
  H  H8  1  0.43804000  0.84358000  0.15312000  1.0
  H  H9  1  0.50610000  0.94687000  0.10568000  1.0
  H  H10  1  0.08823000  0.37056000  0.24831000  1.0
  H  H11  1  0.11147000  0.35113000  0.29772000  1.0
  H  H12  1  0.04532000  0.58340000  0.32019000  1.0
  H  H13  1  0.03053000  0.55426000  0.36881000  1.0
  H  H14  1  0.97806000  0.62316000  0.28920000  1.0
  H  H15  1  0.83393000  0.56638000  0.30163000  1.0
  H  H16  1  0.87021000  0.45917000  0.36844000  1.0
  H  H17  1  0.82113000  0.48944000  0.34104000  1.0
  H  H18  1  0.95340000  0.49118000  0.36227000  1.0
  H  H19  1  0.39485000  0.95844000  0.53619000  1.0
  H  H20  1  0.37987000  0.99511000  0.57603000  1.0
  H  H21  1  0.48826000  0.17272000  0.46492000  1.0
  H  H22  1  0.45349000  0.16179000  0.42105000  1.0
  H  H23  1  0.54233000  0.08624000  0.48758000  1.0
  H  H24  1  0.63065000  0.05491000  0.38515000  1.0
  H  H25  1  0.56195000  0.13440000  0.30945000  1.0
  H  H26  1  0.61156000  0.09286000  0.31677000  1.0
  H  H27  1  0.50898000  0.15056000  0.36716000  1.0
  H  H28  1  0.01098000  0.63186000  0.86956000  1.0
  H  H29  1  0.05470000  0.63837000  0.82958000  1.0
  H  H30  1  0.94348000  0.49161000  0.71538000  1.0
  H  H31  1  0.91257000  0.46755000  0.75983000  1.0
  H  H32  1  0.93929000  0.38859000  0.73740000  1.0
  H  H33  1  0.08535000  0.34309000  0.76810000  1.0
  H  H34  1  0.12760000  0.46323000  0.78753000  1.0
  H  H35  1  0.14501000  0.40197000  0.78573000  1.0
  H  H36  1  0.04524000  0.48957000  0.77061000  1.0
  H  H37  1  0.85313000  0.00044000  0.06333000  1.0
  H  H38  1  0.79371000  0.98023000  0.07705000  1.0
  H  H39  1  0.79414000  0.13245000  0.21427000  1.0
  H  H40  1  0.74974000  0.16565000  0.18411000  1.0
  H  H41  1  0.84964000  0.18508000  0.23909000  1.0
  H  H42  1  0.90177000  0.30708000  0.16426000  1.0
  H  H43  1  0.82892000  0.28407000  0.07351000  1.0
  H  H44  1  0.87304000  0.32225000  0.09343000  1.0
  H  H45  1  0.79732000  0.21511000  0.11625000  1.0
  H  H46  1  0.22004000  0.81317000  0.50757000  1.0
  H  H47  1  0.18693000  0.83617000  0.46343000  1.0
  H  H48  1  0.00812000  0.75487000  0.59350000  1.0
  H  H49  1  0.97698000  0.79822000  0.56059000  1.0
  H  H50  1  0.99126000  0.76783000  0.66216000  1.0
  H  H51  1  0.98721000  0.90896000  0.70235000  1.0
  H  H52  1  0.00927000  0.97034000  0.59959000  1.0
  H  H53  1  0.99852000  0.97833000  0.65235000  1.0
  H  H54  1  0.00960000  0.89015000  0.57566000  1.0
  H  H55  1  0.99961000  0.07752000  0.80183000  1.0
  H  H56  1  0.94042000  0.09567000  0.81567000  1.0
  H  H57  1  0.02982000  0.10686000  0.99901000  1.0
  H  H58  1  0.03824000  0.16857000  0.98505000  1.0
  H  H59  1  0.10093000  0.04864000  0.98842000  1.0
  H  H60  1  0.23633000  0.10696000  0.02431000  1.0
  H  H61  1  0.19569000  0.23288000  0.00735000  1.0
  H  H62  1  0.24518000  0.19370000  0.02310000  1.0
  H  H63  1  0.11727000  0.20034000  0.98831000  1.0
  H  H64  1  0.83446000  0.97758000  0.53002000  1.0
  H  H65  1  0.82589000  0.00221000  0.47840000  1.0
  H  H66  1  0.83796000  0.77242000  0.43721000  1.0
  H  H67  1  0.89303000  0.76667000  0.46515000  1.0
  H  H68  1  0.84505000  0.76578000  0.36671000  1.0
  H  H69  1  0.98073000  0.79140000  0.30391000  1.0
  H  H70  1  0.04362000  0.83429000  0.39323000  1.0
  H  H71  1  0.04986000  0.82199000  0.34084000  1.0
  H  H72  1  0.96690000  0.81831000  0.43016000  1.0
  H  H73  1  0.89304000  0.04094000  0.85584000  1.0
  H  H74  1  0.86793000  0.98289000  0.85590000  1.0
  H  H75  1  0.79768000  0.07734000  0.66928000  1.0
  H  H76  1  0.75266000  0.11189000  0.69264000  1.0
  H  H77  1  0.74615000  0.04728000  0.61947000  1.0
  H  H78  1  0.63420000  0.94832000  0.65866000  1.0
  H  H79  1  0.63963000  0.97246000  0.76764000  1.0
  H  H80  1  0.61042000  0.93873000  0.73115000  1.0
  H  H81  1  0.70299000  0.02988000  0.74585000  1.0
  H  H82  1  0.08390000  0.20962000  0.37026000  1.0
  H  H83  1  0.05463000  0.16086000  0.35012000  1.0
  H  H84  1  0.01240000  0.10691000  0.54750000  1.0
  H  H85  1  0.95699000  0.08733000  0.52782000  1.0
  H  H86  1  0.00174000  0.15583000  0.60175000  1.0
  H  H87  1  0.86884000  0.23364000  0.61542000  1.0
  H  H88  1  0.81775000  0.20771000  0.51554000  1.0
  H  H89  1  0.80771000  0.23777000  0.56068000  1.0
  H  H90  1  0.89269000  0.16067000  0.50787000  1.0
  H  H91  1  0.11299000  0.91668000  0.13983000  1.0
  H  H92  1  0.11671000  0.97976000  0.13108000  1.0
  H  H93  1  0.27161000  0.98597000  0.28724000  1.0
  H  H94  1  0.25253000  0.92787000  0.30470000  1.0
  H  H95  1  0.25142000  0.95719000  0.37344000  1.0
  H  H96  1  0.12809000  0.04132000  0.40510000  1.0
  H  H97  1  0.08599000  0.06802000  0.29855000  1.0
  H  H98  1  0.07296000  0.07486000  0.35120000  1.0
  H  H99  1  0.15473000  0.01920000  0.28001000  1.0
  H  H100  1  0.08600000  0.84243000  0.88528000  1.0
  H  H101  1  0.11200000  0.78578000  0.87645000  1.0
  H  H102  1  0.04294000  0.73434000  0.07237000  1.0
  H  H103  1  0.00545000  0.69257000  0.05046000  1.0
  H  H104  1  0.96443000  0.71222000  0.11933000  1.0
  H  H105  1  0.85851000  0.82544000  0.10457000  1.0
  H  H106  1  0.90203000  0.87283000  0.00215000  1.0
  H  H107  1  0.85743000  0.87915000  0.04115000  1.0
  H  H108  1  0.96011000  0.80695000  0.00866000  1.0
  C  C1  1  0.82475000  0.03141000  0.88618000  1.0
  C  C2  1  0.69843000  0.98310000  0.96722000  1.0
  C  C3  1  0.79767000  0.02659000  0.02228000  1.0
  C  C4  1  0.01386000  0.22607000  0.34580000  1.0
  C  C5  1  0.03524000  0.34038000  0.29010000  1.0
  C  C6  1  0.90750000  0.26178000  0.24067000  1.0
  C  C7  1  0.32295000  0.98737000  0.53382000  1.0
  C  C8  1  0.20548000  0.99164000  0.43776000  1.0
  C  C9  1  0.20446000  0.88771000  0.50471000  1.0
  C  C10  1  0.98074000  0.15045000  0.78380000  1.0
  C  C11  1  0.99899000  0.31078000  0.74376000  1.0
  C  C12  1  0.95205000  0.20686000  0.65366000  1.0
  C  C13  1  0.88809000  0.75107000  0.15625000  1.0
  C  C14  1  0.88498000  0.64195000  0.26814000  1.0
  C  C15  1  0.88869000  0.76053000  0.29363000  1.0
  C  C16  1  0.68213000  0.98596000  0.59167000  1.0
  C  C17  1  0.61820000  0.03212000  0.46653000  1.0
  C  C18  1  0.76328000  0.96922000  0.50672000  1.0
  C  C19  1  0.98022000  0.81560000  0.72946000  1.0
  C  C20  1  0.99647000  0.68900000  0.82417000  1.0
  C  C21  1  0.03815000  0.79653000  0.85730000  1.0
  C  C22  1  0.32319000  0.93390000  0.05299000  1.0
  C  C23  1  0.17187000  0.94174000  0.10161000  1.0
  C  C24  1  0.19154000  0.02405000  0.01609000  1.0
  C  C25  1  0.66190000  0.94526000  0.97893000  1.0
  C  C26  1  0.61576000  0.96547000  0.99561000  1.0
  C  C27  1  0.57133000  0.96239000  0.97514000  1.0
  C  C28  1  0.52866000  0.97967000  0.99182000  1.0
  C  C29  1  0.52974000  0.00068000  0.02899000  1.0
  C  C30  1  0.48328000  0.01804000  0.04726000  1.0
  C  C31  1  0.45210000  0.97680000  0.06311000  1.0
  C  C32  1  0.40466000  0.97234000  0.04852000  1.0
  C  C33  1  0.37473000  0.93544000  0.06498000  1.0
  C  C34  1  0.39333000  0.90190000  0.09534000  1.0
  C  C35  1  0.44080000  0.90572000  0.10969000  1.0
  C  C36  1  0.46977000  0.94344000  0.09391000  1.0
  C  C37  1  0.57428000  0.00432000  0.04920000  1.0
  C  C38  1  0.61677000  0.98646000  0.03279000  1.0
  C  C39  1  0.08016000  0.36917000  0.28149000  1.0
  C  C40  1  0.07326000  0.41872000  0.29463000  1.0
  C  C41  1  0.05983000  0.45669000  0.26609000  1.0
  C  C42  1  0.04653000  0.50076000  0.27924000  1.0
  C  C43  1  0.04592000  0.50738000  0.32113000  1.0
  C  C44  1  0.02533000  0.55274000  0.33549000  1.0
  C  C45  1  0.97176000  0.55669000  0.32648000  1.0
  C  C46  1  0.95357000  0.59560000  0.30139000  1.0
  C  C47  1  0.90394000  0.59944000  0.29239000  1.0
  C  C48  1  0.87238000  0.56377000  0.30841000  1.0
  C  C49  1  0.89014000  0.52460000  0.33338000  1.0
  C  C50  1  0.93973000  0.52137000  0.34273000  1.0
  C  C51  1  0.06189000  0.47022000  0.34944000  1.0
  C  C52  1  0.07544000  0.42626000  0.33627000  1.0
  C  C53  1  0.37587000  0.99183000  0.54283000  1.0
  C  C54  1  0.39885000  0.03317000  0.51772000  1.0
  C  C55  1  0.40235000  0.03292000  0.47505000  1.0
  C  C56  1  0.42518000  0.07011000  0.45173000  1.0
  C  C57  1  0.44602000  0.10765000  0.47081000  1.0
  C  C58  1  0.47622000  0.14427000  0.44608000  1.0
  C  C59  1  0.52075000  0.12114000  0.42931000  1.0
  C  C60  1  0.55078000  0.09149000  0.45531000  1.0
  C  C61  1  0.59003000  0.06688000  0.43964000  1.0
  C  C62  1  0.60054000  0.07377000  0.39774000  1.0
  C  C63  1  0.57171000  0.10434000  0.37168000  1.0
  C  C64  1  0.53170000  0.12766000  0.38751000  1.0
  C  C65  1  0.44166000  0.10844000  0.51337000  1.0
  C  C66  1  0.41829000  0.07153000  0.53667000  1.0
  C  C67  1  0.01515000  0.63960000  0.83605000  1.0
  C  C68  1  0.99099000  0.60242000  0.81283000  1.0
  C  C69  1  0.99784000  0.60285000  0.77045000  1.0
  C  C70  1  0.98167000  0.56513000  0.74934000  1.0
  C  C71  1  0.95903000  0.52579000  0.77040000  1.0
  C  C72  1  0.94801000  0.48199000  0.74867000  1.0
  C  C73  1  0.98694000  0.44350000  0.75462000  1.0
  C  C74  1  0.97565000  0.39658000  0.74701000  1.0
  C  C75  1  0.01085000  0.36001000  0.75196000  1.0
  C  C76  1  0.05783000  0.37080000  0.76426000  1.0
  C  C77  1  0.06995000  0.41753000  0.77087000  1.0
  C  C78  1  0.03476000  0.45364000  0.76586000  1.0
  C  C79  1  0.95105000  0.52576000  0.81261000  1.0
  C  C80  1  0.96651000  0.56392000  0.83368000  1.0
  C  C81  1  0.81461000  0.01189000  0.06499000  1.0
  C  C82  1  0.80825000  0.05036000  0.09392000  1.0
  C  C83  1  0.84824000  0.06668000  0.11503000  1.0
  C  C84  1  0.84166000  0.09954000  0.14405000  1.0
  C  C85  1  0.79522000  0.11797000  0.15163000  1.0
  C  C86  1  0.78775000  0.15230000  0.18398000  1.0
  C  C87  1  0.82043000  0.19496000  0.17810000  1.0
  C  C88  1  0.85019000  0.20684000  0.21021000  1.0
  C  C89  1  0.87928000  0.24751000  0.20568000  1.0
  C  C90  1  0.87934000  0.27572000  0.16824000  1.0
  C  C91  1  0.85024000  0.26382000  0.13587000  1.0
  C  C92  1  0.82036000  0.22388000  0.14106000  1.0
  C  C93  1  0.75533000  0.10197000  0.13024000  1.0
  C  C94  1  0.76171000  0.06795000  0.10227000  1.0
  C  C95  1  0.19041000  0.83819000  0.49689000  1.0
  C  C96  1  0.14338000  0.82429000  0.51790000  1.0
  C  C97  1  0.14352000  0.80142000  0.55769000  1.0
  C  C98  1  0.09985000  0.79088000  0.57798000  1.0
  C  C99  1  0.05536000  0.80303000  0.55881000  1.0
  C  C100  1  0.00838000  0.79296000  0.58143000  1.0
  C  C101  1  0.00178000  0.82526000  0.61523000  1.0
  C  C102  1  0.99335000  0.80605000  0.65545000  1.0
  C  C103  1  0.98827000  0.83597000  0.68716000  1.0
  C  C104  1  0.99123000  0.88547000  0.67820000  1.0
  C  C105  1  0.99886000  0.90502000  0.63807000  1.0
  C  C106  1  0.00367000  0.87491000  0.60666000  1.0
  C  C107  1  0.05525000  0.82594000  0.51896000  1.0
  C  C108  1  0.09893000  0.83667000  0.49877000  1.0
  C  C109  1  0.97867000  0.10729000  0.81363000  1.0
  C  C110  1  0.99786000  0.11668000  0.85503000  1.0
  C  C111  1  0.04803000  0.11811000  0.86195000  1.0
  C  C112  1  0.06612000  0.12324000  0.90107000  1.0
  C  C113  1  0.03398000  0.12656000  0.93428000  1.0
  C  C114  1  0.04998000  0.13247000  0.97770000  1.0
  C  C115  1  0.10328000  0.12529000  0.98685000  1.0
  C  C116  1  0.12333000  0.07911000  0.99275000  1.0
  C  C117  1  0.17131000  0.07228000  0.00650000  1.0
  C  C118  1  0.19942000  0.11193000  0.01340000  1.0
  C  C119  1  0.18035000  0.15808000  0.00610000  1.0
  C  C120  1  0.13228000  0.16462000  0.99303000  1.0
  C  C121  1  0.98378000  0.12649000  0.92673000  1.0
  C  C122  1  0.96590000  0.12179000  0.88763000  1.0
  C  C123  1  0.81720000  0.97132000  0.50051000  1.0
  C  C124  1  0.83621000  0.92647000  0.48388000  1.0
  C  C125  1  0.86604000  0.89421000  0.50767000  1.0
  C  C126  1  0.87930000  0.85062000  0.49346000  1.0
  C  C127  1  0.86331000  0.83867000  0.45513000  1.0
  C  C128  1  0.87334000  0.78982000  0.44140000  1.0
  C  C129  1  0.90265000  0.79218000  0.40259000  1.0
  C  C130  1  0.88229000  0.77778000  0.36656000  1.0
  C  C131  1  0.91001000  0.77772000  0.33077000  1.0
  C  C132  1  0.95869000  0.79193000  0.33119000  1.0
  C  C133  1  0.97908000  0.80712000  0.36689000  1.0
  C  C134  1  0.95101000  0.80713000  0.40243000  1.0
  C  C135  1  0.83505000  0.87178000  0.43072000  1.0
  C  C136  1  0.82200000  0.91541000  0.44480000  1.0
  C  C137  1  0.85881000  0.02145000  0.85240000  1.0
  C  C138  1  0.83732000  0.03609000  0.81078000  1.0
  C  C139  1  0.83514000  0.00333000  0.78102000  1.0
  C  C140  1  0.81464000  0.01658000  0.74275000  1.0
  C  C141  1  0.79429000  0.06235000  0.73403000  1.0
  C  C142  1  0.76942000  0.07586000  0.69350000  1.0
  C  C143  1  0.73016000  0.04147000  0.68399000  1.0
  C  C144  1  0.72378000  0.03031000  0.64356000  1.0
  C  C145  1  0.68919000  0.99690000  0.63420000  1.0
  C  C146  1  0.66082000  0.97441000  0.66555000  1.0
  C  C147  1  0.66558000  0.98654000  0.70576000  1.0
  C  C148  1  0.69963000  0.02056000  0.71472000  1.0
  C  C149  1  0.79755000  0.09547000  0.76340000  1.0
  C  C150  1  0.81973000  0.08278000  0.80110000  1.0
  C  C151  1  0.04843000  0.19177000  0.36821000  1.0
  C  C152  1  0.02958000  0.17438000  0.41001000  1.0
  C  C153  1  0.04936000  0.19103000  0.44541000  1.0
  C  C154  1  0.03223000  0.17412000  0.48402000  1.0
  C  C155  1  0.99544000  0.13991000  0.48795000  1.0
  C  C156  1  0.97966000  0.11936000  0.52979000  1.0
  C  C157  1  0.95085000  0.15478000  0.55194000  1.0
  C  C158  1  0.96709000  0.16866000  0.58953000  1.0
  C  C159  1  0.93737000  0.19670000  0.61257000  1.0
  C  C160  1  0.89193000  0.21218000  0.59751000  1.0
  C  C161  1  0.87622000  0.20018000  0.55933000  1.0
  C  C162  1  0.90555000  0.17121000  0.53678000  1.0
  C  C163  1  0.97526000  0.12367000  0.45252000  1.0
  C  C164  1  0.99219000  0.14080000  0.41391000  1.0
  C  C165  1  0.13881000  0.94678000  0.13731000  1.0
  C  C166  1  0.16663000  0.94964000  0.17653000  1.0
  C  C167  1  0.19219000  0.99124000  0.18308000  1.0
  C  C168  1  0.21644000  0.99511000  0.21985000  1.0
  C  C169  1  0.21460000  0.95805000  0.25138000  1.0
  C  C170  1  0.23895000  0.96338000  0.29190000  1.0
  C  C171  1  0.20642000  0.98455000  0.32300000  1.0
  C  C172  1  0.21939000  0.97813000  0.36447000  1.0
  C  C173  1  0.19153000  0.99855000  0.39427000  1.0
  C  C174  1  0.15008000  0.02556000  0.38245000  1.0
  C  C175  1  0.13699000  0.03273000  0.34122000  1.0
  C  C176  1  0.16518000  0.01255000  0.31169000  1.0
  C  C177  1  0.18891000  0.91653000  0.24502000  1.0
  C  C178  1  0.16546000  0.91220000  0.20785000  1.0
  C  C179  1  0.07858000  0.80371000  0.88651000  1.0
  C  C180  1  0.06596000  0.78360000  0.92940000  1.0
  C  C181  1  0.06945000  0.81184000  0.96239000  1.0
  C  C182  1  0.05433000  0.79419000  0.00144000  1.0
  C  C183  1  0.03377000  0.74863000  0.00781000  1.0
  C  C184  1  0.01394000  0.73107000  0.04941000  1.0
  C  C185  1  0.96879000  0.75700000  0.06266000  1.0
  C  C186  1  0.94851000  0.74221000  0.10087000  1.0
  C  C187  1  0.90882000  0.76666000  0.11609000  1.0
  C  C188  1  0.88902000  0.80626000  0.09287000  1.0
  C  C189  1  0.90772000  0.82055000  0.05418000  1.0
  C  C190  1  0.94695000  0.79559000  0.03888000  1.0
  C  C191  1  0.03240000  0.71964000  0.97525000  1.0
  C  C192  1  0.04948000  0.73652000  0.93666000  1.0
  N  N1  1  0.45932000  0.87176000  0.14089000  1.0
  N  N2  1  0.85778000  0.48809000  0.34907000  1.0
  N  N3  1  0.58262000  0.11107000  0.32906000  1.0
  N  N4  1  0.11824000  0.42848000  0.78239000  1.0
  N  N5  1  0.85066000  0.29257000  0.09773000  1.0
  N  N6  1  0.00223000  0.95547000  0.62922000  1.0
  N  N7  1  0.20952000  0.19828000  0.01275000  1.0
  N  N8  1  0.02838000  0.82230000  0.36698000  1.0
  N  N9  1  0.63596000  0.96412000  0.73747000  1.0
  N  N10  1  0.83000000  0.21655000  0.54389000  1.0
  N  N11  1  0.09513000  0.06093000  0.32933000  1.0
  N  N12  1  0.88717000  0.86074000  0.03038000  1.0
  O  O1  1  0.80087000  0.99936000  0.99387000  1.0
  O  O2  1  0.77793000  0.06632000  0.01105000  1.0
  O  O3  1  0.83870000  0.05054000  0.91782000  1.0
  O  O4  1  0.77966000  0.02179000  0.88563000  1.0
  O  O5  1  0.74263000  0.97377000  0.96104000  1.0
  O  O6  1  0.68865000  0.02719000  0.96256000  1.0
  O  O7  1  0.92702000  0.30257000  0.24078000  1.0
  O  O8  1  0.91309000  0.23498000  0.27376000  1.0
  O  O9  1  0.01297000  0.23334000  0.30731000  1.0
  O  O10  1  0.98365000  0.25160000  0.36322000  1.0
  O  O11  1  0.02644000  0.30246000  0.27381000  1.0
  O  O12  1  0.00215000  0.35154000  0.31427000  1.0
  O  O13  1  0.24176000  0.90774000  0.48901000  1.0
  O  O14  1  0.18043000  0.91391000  0.52696000  1.0
  O  O15  1  0.29785000  0.95303000  0.55019000  1.0
  O  O16  1  0.29942000  0.01677000  0.50926000  1.0
  O  O17  1  0.24225000  0.96743000  0.45053000  1.0
  O  O18  1  0.18171000  0.00860000  0.46610000  1.0
  O  O19  1  0.99128000  0.22866000  0.66065000  1.0
  O  O20  1  0.92643000  0.19396000  0.68514000  1.0
  O  O21  1  0.00266000  0.14994000  0.74950000  1.0
  O  O22  1  0.95867000  0.18955000  0.78962000  1.0
  O  O23  1  0.02728000  0.27520000  0.75369000  1.0
  O  O24  1  0.95978000  0.30048000  0.72583000  1.0
  O  O25  1  0.91370000  0.74665000  0.26465000  1.0
  O  O26  1  0.84352000  0.75638000  0.28827000  1.0
  O  O27  1  0.87633000  0.78001000  0.18228000  1.0
  O  O28  1  0.88016000  0.70738000  0.16768000  1.0
  O  O29  1  0.84030000  0.65173000  0.26465000  1.0
  O  O30  1  0.91162000  0.67348000  0.25013000  1.0
  O  O31  1  0.73728000  0.00569000  0.51083000  1.0
  O  O32  1  0.73904000  0.93124000  0.50772000  1.0
  O  O33  1  0.69058000  0.01514000  0.56101000  1.0
  O  O34  1  0.66627000  0.94660000  0.58210000  1.0
  O  O35  1  0.60709000  0.02131000  0.50396000  1.0
  O  O36  1  0.65476000  0.00935000  0.45417000  1.0
  O  O37  1  0.04504000  0.78070000  0.82287000  1.0
  O  O38  1  0.99381000  0.80380000  0.86500000  1.0
  O  O39  1  0.98759000  0.83909000  0.76030000  1.0
  O  O40  1  0.96533000  0.77324000  0.73842000  1.0
  O  O41  1  0.02161000  0.72052000  0.80433000  1.0
  O  O42  1  0.95533000  0.70418000  0.83453000  1.0
  O  O43  1  0.22172000  0.01419000  0.04464000  1.0
  O  O44  1  0.18050000  0.98833000  0.99744000  1.0
  O  O45  1  0.30527000  0.95990000  0.02273000  1.0
  O  O46  1  0.29228000  0.90798000  0.07305000  1.0
  O  O47  1  0.20899000  0.96712000  0.09433000  1.0
  O  O48  1  0.16440000  0.91317000  0.07492000  1.0
  F  F1  1  0.56907000  0.94232000  0.93918000  1.0
  F  F2  1  0.48604000  0.97537000  0.97197000  1.0
  F  F3  1  0.57656000  0.02400000  0.08536000  1.0
  F  F4  1  0.65901000  0.98882000  0.05354000  1.0
  F  F5  1  0.05729000  0.45048000  0.22569000  1.0
  F  F6  1  0.03219000  0.53645000  0.25124000  1.0
  F  F7  1  0.06225000  0.47569000  0.39004000  1.0
  F  F8  1  0.08838000  0.39016000  0.36438000  1.0
  F  F9  1  0.38426000  0.99614000  0.45602000  1.0
  F  F10  1  0.42846000  0.06876000  0.41065000  1.0
  F  F11  1  0.46138000  0.14419000  0.53269000  1.0
  F  F12  1  0.41569000  0.07281000  0.57779000  1.0
  F  F13  1  0.02280000  0.63856000  0.74977000  1.0
  F  F14  1  0.99131000  0.56548000  0.70885000  1.0
  F  F15  1  0.93022000  0.48773000  0.83381000  1.0
  F  F16  1  0.95968000  0.56197000  0.87466000  1.0
  F  F17  1  0.89361000  0.04980000  0.10853000  1.0
  F  F18  1  0.88067000  0.11292000  0.16520000  1.0
  F  F19  1  0.70979000  0.11800000  0.13740000  1.0
  F  F20  1  0.72216000  0.05144000  0.08381000  1.0
  F  F21  1  0.18601000  0.79027000  0.57722000  1.0
  F  F22  1  0.10089000  0.76943000  0.61663000  1.0
  F  F23  1  0.01293000  0.83931000  0.50005000  1.0
  F  F24  1  0.09791000  0.86015000  0.46086000  1.0
  F  F25  1  0.07962000  0.11442000  0.83067000  1.0
  F  F26  1  0.11486000  0.12546000  0.90573000  1.0
  F  F27  1  0.95176000  0.13129000  0.95753000  1.0
  F  F28  1  0.91723000  0.12281000  0.88163000  1.0
  F  F29  1  0.88100000  0.90410000  0.54526000  1.0
  F  F30  1  0.90624000  0.81937000  0.51789000  1.0
  F  F31  1  0.81866000  0.86116000  0.39376000  1.0
  F  F32  1  0.79393000  0.94634000  0.42089000  1.0
  F  F33  1  0.85304000  0.95840000  0.78881000  1.0
  F  F34  1  0.81370000  0.98435000  0.71449000  1.0
  F  F35  1  0.77938000  0.14029000  0.75568000  1.0
  F  F36  1  0.82332000  0.11592000  0.82840000  1.0
  F  F37  1  0.08532000  0.22365000  0.44265000  1.0
  F  F38  1  0.05213000  0.19052000  0.51773000  1.0
  F  F39  1  0.93921000  0.09111000  0.45524000  1.0
  F  F40  1  0.97255000  0.12411000  0.38021000  1.0
  F  F41  1  0.19256000  0.02871000  0.15411000  1.0
  F  F42  1  0.24029000  0.03590000  0.22538000  1.0
  F  F43  1  0.18610000  0.88040000  0.27511000  1.0
  F  F44  1  0.14119000  0.87157000  0.20260000  1.0
  F  F45  1  0.08735000  0.85663000  0.95696000  1.0
  F  F46  1  0.05767000  0.82229000  0.03271000  1.0
  F  F47  1  0.01379000  0.67512000  0.98044000  1.0
  F  F48  1  0.04852000  0.70739000  0.90605000  1.0
