# generated using pymatgen
data_H11C17N4O
_symmetry_space_group_name_H-M   'P 1'
_cell_length_a   15.73255000
_cell_length_b   27.24957593
_cell_length_c   47.19770000
_cell_angle_alpha   90.00000000
_cell_angle_beta   90.00000000
_cell_angle_gamma   90.00000000
_symmetry_Int_Tables_number   1
_chemical_formula_structural   H11C17N4O
_chemical_formula_sum   'H132 C204 N48 O12'
_cell_volume   20233.90488536
_cell_formula_units_Z   12
loop_
 _symmetry_equiv_pos_site_id
 _symmetry_equiv_pos_as_xyz
  1  'x, y, z'
loop_
 _atom_site_type_symbol
 _atom_site_label
 _atom_site_symmetry_multiplicity
 _atom_site_fract_x
 _atom_site_fract_y
 _atom_site_fract_z
 _atom_site_occupancy
  C  2  1  0.53335200  0.49041200  0.02346000  1
  C  3  1  0.62078300  0.48150100  0.01705000  1
  C  4  1  0.07641600  0.99301100  0.07476800  1
  C  5  1  0.01466500  0.99807500  0.05312700  1
  C  8  1  0.54910100  0.49139900  0.66868500  1
  C  9  1  0.63423100  0.43576500  0.62547300  1
  C  10  1  0.64775500  0.42398100  0.65420600  1
  C  11  1  0.60548800  0.45184200  0.67526000  1
  C  13  1  0.01537300  0.02342900  0.69032400  1
  C  14  1  0.98488800  0.07157200  0.68393000  1
  C  15  1  0.95771500  0.10514100  0.70495400  1
  C  16  1  0.96395600  0.09134800  0.73366900  1
  C  23  1  0.99542100  0.03233600  0.33593200  1
  C  24  1  0.99565700  0.01981600  0.30649400  1
  C  25  1  0.01605200  0.05381400  0.28490200  1
  C  26  1  0.02710700  0.08025900  0.34238500  1
  C  29  1  0.50620400  0.50821000  0.20925500  1
  C  30  1  0.54045300  0.47104300  0.19172600  1
  C  31  1  0.54123200  0.47567000  0.16201100  1
  C  34  1  0.51171100  0.50294000  0.23906000  1
  C  35  1  0.03868700  0.03661700  0.85879600  1
  C  36  1  0.03201400  0.03469900  0.82905600  1
  C  38  1  0.00770200  0.00617400  0.48231000  1
  C  39  1  0.08396400  0.00606500  0.49832100  1
  C  40  1  0.08242100  0.00179200  0.52843500  1
  C  42  1  0.86871000  0.22412600  0.67740400  1
  C  43  1  0.86079500  0.25442100  0.65304900  1
  C  44  1  0.81657500  0.30016100  0.65415500  1
  C  45  1  0.91054700  0.17802000  0.67631700  1
  C  48  1  0.03325100  0.99034600  0.02382900  1
  C  49  1  0.12068500  0.98146200  0.01742000  1
  C  50  1  0.57649600  0.49323400  0.07435100  1
  C  51  1  0.51474900  0.49826900  0.05273000  1
  C  54  1  0.04939400  0.99153900  0.66873400  1
  C  55  1  0.13348800  0.93605200  0.62525300  1
  C  56  1  0.14804900  0.92434500  0.65397100  1
  C  57  1  0.10625200  0.95216600  0.67515200  1
  C  59  1  0.51475500  0.52331100  0.69021400  1
  C  60  1  0.48432600  0.57147400  0.68381500  1
  C  61  1  0.45732200  0.60510000  0.70484400  1
  C  62  1  0.46370600  0.59133400  0.73355900  1
  C  69  1  0.50448800  0.52933000  0.33526000  1
  C  70  1  0.50215100  0.51726000  0.30580100  1
  C  71  1  0.52000500  0.55181800  0.28426000  1
  C  72  1  0.53519800  0.57737800  0.34178200  1
  C  75  1  0.00551200  0.00932900  0.20988000  1
  C  76  1  0.04003200  0.97197500  0.19252600  1
  C  77  1  0.04129600  0.97625400  0.16277600  1
  C  80  1  0.00996300  0.00436700  0.23974300  1
  C  81  1  0.53874200  0.53655600  0.85860600  1
  C  82  1  0.53205400  0.53460000  0.82887100  1
  C  84  1  0.52854800  0.50109800  0.48168500  1
  C  85  1  0.60246400  0.50252600  0.49891600  1
  C  86  1  0.59615600  0.50065400  0.52905800  1
  C  87  1  0.53314900  0.50128500  0.45171500  1
  C  89  1  0.36860800  0.72422500  0.67732100  1
  C  90  1  0.36081900  0.75448900  0.65294900  1
  C  91  1  0.31673700  0.80027700  0.65401900  1
  C  92  1  0.41027300  0.67805500  0.67624500  1
  C  94  1  0.53225200  0.49849300  0.63921800  1
  C  95  1  0.57496600  0.47211000  0.61770800  1
  C  96  1  0.98949800  0.04350300  0.74123600  1
  C  97  1  0.01319300  0.01020000  0.71960100  1
  C  100  1  0.00032100  0.01562000  0.14872300  1
  C  101  1  0.96149000  0.05209400  0.16586600  1
  C  102  1  0.96695700  0.04996900  0.19602500  1
  C  104  1  0.89018700  0.12624200  0.19915100  1
  C  105  1  0.88576800  0.12822400  0.16939400  1
  C  107  1  0.85318900  0.16483600  0.21722900  1
  C  109  1  0.99751800  0.01756300  0.11873500  1
  C  110  1  0.51569800  0.50123000  0.54277900  1
  C  111  1  0.77700700  0.31634900  0.67962400  1
  C  112  1  0.78796400  0.28658900  0.70395200  1
  C  113  1  0.83263200  0.24185100  0.70291200  1
  C  116  1  0.72613700  0.35919800  0.68203800  1
  C  118  1  0.03125300  0.99835400  0.63933900  1
  C  119  1  0.07318500  0.97198300  0.61763800  1
  C  121  1  0.48898500  0.54344700  0.74111900  1
  C  122  1  0.51234400  0.51008200  0.71948700  1
  C  125  1  0.50011200  0.51523800  0.14820100  1
  C  126  1  0.46142500  0.55149500  0.16551700  1
  C  127  1  0.46732700  0.54901100  0.19565100  1
  C  129  1  0.39068200  0.62528400  0.19918300  1
  C  130  1  0.38581300  0.62759200  0.16944100  1
  C  132  1  0.35400500  0.66371700  0.21744900  1
  C  134  1  0.49723300  0.51755300  0.11824500  1
  C  135  1  0.27722000  0.81660400  0.67945900  1
  C  136  1  0.28806600  0.78687500  0.70381200  1
  C  137  1  0.33256900  0.74206000  0.70281200  1
  C  140  1  0.22655600  0.85956600  0.68178600  1
  C  142  1  0.68470800  0.47816900  0.03807600  1
  C  143  1  0.66093100  0.48187600  0.06679400  1
  C  146  1  0.04141300  0.10157000  0.29256100  1
  C  147  1  0.05057200  0.11463900  0.32128900  1
  C  154  1  0.85410100  0.31502800  0.60535600  1
  C  155  1  0.89503800  0.26918300  0.60428400  1
  C  159  1  0.18462800  0.97807100  0.03843300  1
  C  160  1  0.16085700  0.98169300  0.06716100  1
  C  163  1  0.54458400  0.59968700  0.29196100  1
  C  164  1  0.55541300  0.61238800  0.32067500  1
  C  171  1  0.35427700  0.81502600  0.60522500  1
  C  172  1  0.39515500  0.76916100  0.60418000  1
  C  182  1  0.23552900  0.00119100  0.52888200  1
  C  183  1  0.85365600  0.34832500  0.58072600  1
  C  189  1  0.35375000  0.84830700  0.58059000  1
  C  191  1  0.00929700  0.00858400  0.45236100  1
  C  192  1  0.23622800  0.00485800  0.49915400  1
  C  196  1  0.00412500  0.00159400  0.54348600  1
  C  197  1  0.46829400  0.48919700  0.00194500  1
  C  198  1  0.98743800  0.99406800  0.97278500  1
  C  199  1  0.92658300  0.98588800  0.95124600  1
  C  200  1  0.34222000  0.47447700  0.95876100  1
  C  201  1  0.31784300  0.47357100  0.98749800  1
  C  202  1  0.38078900  0.48076400  0.00854000  1
  C  218  1  0.47409200  0.49633800  0.35688400  1
  C  219  1  0.41697500  0.45709000  0.35056600  1
  C  220  1  0.37994300  0.42699800  0.37166700  1
  C  221  1  0.39742500  0.43721400  0.40036300  1
  C  222  1  0.45682100  0.47373600  0.40784200  1
  C  223  1  0.49528300  0.50189800  0.38614000  1
  C  244  1  0.49362400  0.49423200  0.81497200  1
  C  245  1  0.45831700  0.45674500  0.83222700  1
  C  246  1  0.45843700  0.46096900  0.86236200  1
  C  247  1  0.99975200  0.00089300  0.87624900  1
  C  249  1  0.38272000  0.38438100  0.86576100  1
  C  250  1  0.38228700  0.38076200  0.83601800  1
  C  253  1  0.34328700  0.34678300  0.88396700  1
  C  257  1  0.49220700  0.49161200  0.78500000  1
  C  259  1  0.00430200  0.00622200  0.90608000  1
  C  261  1  0.44260400  0.50256600  0.52534100  1
  C  262  1  0.44882500  0.50005200  0.49560700  1
  C  266  1  0.31485200  0.99858500  0.54540400  1
  C  270  1  0.50549200  0.50083700  0.57260600  1
  C  272  1  0.90767900  0.46298400  0.01062300  1
  C  273  1  0.95713600  0.45177600  0.98628800  1
  C  274  1  0.04784100  0.45097600  0.98742300  1
  C  275  1  0.59174900  0.96275700  0.01306700  1
  C  276  1  0.54162300  0.97213000  0.03739600  1
  C  277  1  0.45218400  0.97217000  0.03635500  1
  C  279  1  0.05148300  0.42479600  0.93862400  1
  C  280  1  0.96225400  0.42729100  0.93752100  1
  C  285  1  0.10169100  0.40836300  0.91400700  1
  C  289  1  0.81762400  0.46519300  0.00948400  1
  C  291  1  0.68145400  0.96677200  0.01549700  1
  C  301  1  0.24517000  0.32341700  0.34418800  1
  C  302  1  0.20386900  0.30435400  0.31979300  1
  C  303  1  0.15634200  0.25975000  0.32095000  1
  C  304  1  0.15048700  0.23226200  0.34653400  1
  C  305  1  0.18972600  0.25252300  0.37087000  1
  C  306  1  0.23562500  0.29683100  0.36976600  1
  C  308  1  0.11676800  0.27079900  0.27199200  1
  C  309  1  0.16597100  0.31384700  0.27089300  1
  C  314  1  0.06735600  0.25397100  0.24728300  1
  C  318  1  0.29409600  0.36710700  0.34307400  1
  C  320  1  0.11001700  0.18589500  0.34906200  1
  C  322  1  0.96830200  0.98919000  0.00225700  1
  C  323  1  0.48733200  0.49408100  0.97248000  1
  C  324  1  0.42636100  0.48593500  0.95098300  1
  C  325  1  0.84241600  0.97443100  0.95899400  1
  C  326  1  0.81789500  0.97357900  0.98772000  1
  C  327  1  0.88075100  0.98079400  0.00879900  1
  C  343  1  0.96306600  0.99958300  0.35745000  1
  C  344  1  0.90975900  0.95877200  0.35068900  1
  C  345  1  0.87365000  0.92759300  0.37142700  1
  C  346  1  0.88755200  0.93808900  0.40028400  1
  C  347  1  0.94068400  0.97727500  0.40838000  1
  C  348  1  0.97874900  0.00649100  0.38701500  1
  C  369  1  0.99366700  0.99433200  0.81513300  1
  C  370  1  0.95833500  0.95684100  0.83238400  1
  C  371  1  0.95842300  0.96103200  0.86252500  1
  C  372  1  0.49975200  0.50086000  0.87605800  1
  C  374  1  0.88270700  0.88444000  0.86588400  1
  C  375  1  0.88230700  0.88085500  0.83613800  1
  C  378  1  0.84326000  0.84681400  0.88406500  1
  C  382  1  0.99243700  0.99169300  0.78515500  1
  C  384  1  0.50419500  0.50623900  0.90588100  1
  C  386  1  0.92847200  0.00397600  0.52727000  1
  C  387  1  0.93012500  0.00362400  0.49740600  1
  C  388  1  0.74889500  0.50142800  0.53241600  1
  C  389  1  0.75446100  0.50284500  0.50266700  1
  C  393  1  0.82505600  0.50075300  0.55060100  1
  C  397  1  0.99840500  0.99976700  0.57344800  1
  C  399  1  0.40756200  0.96302800  0.01084200  1
  C  400  1  0.45696900  0.95186100  0.98648500  1
  C  401  1  0.54769000  0.95109400  0.98759100  1
  C  402  1  0.09183200  0.46266100  0.01291100  1
  C  403  1  0.04165800  0.47205500  0.03722500  1
  C  404  1  0.95222000  0.47212500  0.03615200  1
  C  406  1  0.55123000  0.92496200  0.93878100  1
  C  407  1  0.46199100  0.92741700  0.93770900  1
  C  412  1  0.60139200  0.90857600  0.91414000  1
  C  416  1  0.31748300  0.96520100  0.00975900  1
  C  418  1  0.18152600  0.46668600  0.01534400  1
  C  428  1  0.74498800  0.82219300  0.34339000  1
  C  429  1  0.70319400  0.80314300  0.31910000  1
  C  430  1  0.65625200  0.75836500  0.32035300  1
  C  431  1  0.65182900  0.73069100  0.34590300  1
  C  432  1  0.69140200  0.75097700  0.37016000  1
  C  433  1  0.73653900  0.79549900  0.36897400  1
  C  435  1  0.61468900  0.76963500  0.27159000  1
  C  436  1  0.66334100  0.81288300  0.27039500  1
  C  441  1  0.56462900  0.75278700  0.24703300  1
  C  445  1  0.79288000  0.86622000  0.34224300  1
  C  447  1  0.61282700  0.68396000  0.34845800  1
  H  1  1  0.04723900  0.00310600  0.96633600  1
  H  6  1  0.63926900  0.47496200  0.99673700  1
  H  18  1  0.63778200  0.38108100  0.60063300  1
  H  19  1  0.62159900  0.44460500  0.69573100  1
  H  20  1  0.98549200  0.08409800  0.66361700  1
  H  27  1  0.01838600  0.03364600  0.39368200  1
  H  32  1  0.56833800  0.44799600  0.15045500  1
  H  33  1  0.88273000  0.20009500  0.21239000  1
  H  37  1  0.04606100  0.03077500  0.91478200  1
  H  41  1  0.06363600  0.01940900  0.44224800  1
  H  46  1  0.93165400  0.16487800  0.65730600  1
  H  47  1  0.54712100  0.50310500  0.96600900  1
  H  52  1  0.13918700  0.97499600  0.99710400  1
  H  64  1  0.13714000  0.88112300  0.60059700  1
  H  65  1  0.12297500  0.94507200  0.69558900  1
  H  66  1  0.48484500  0.58398700  0.66350500  1
  H  73  1  0.53875100  0.52749800  0.39228800  1
  H  78  1  0.06850900  0.94843400  0.15136800  1
  H  79  1  0.38346700  0.69901700  0.21266300  1
  H  83  1  0.54592200  0.53079800  0.91459600  1
  H  88  1  0.58875700  0.51033100  0.44178200  1
  H  93  1  0.43128900  0.66487700  0.65722900  1
  H  108  1  0.86336900  0.15679100  0.23964300  1
  H  114  1  0.83633100  0.22160500  0.72113300  1
  H  115  1  0.76115600  0.29655700  0.72287700  1
  H  117  1  0.70109000  0.36843500  0.70132300  1
  H  120  1  0.48881500  0.52387600  0.63275600  1
  H  133  1  0.36455600  0.65546400  0.23981900  1
  H  138  1  0.33618000  0.72184300  0.72104600  1
  H  139  1  0.26128400  0.79692700  0.72272400  1
  H  141  1  0.20157700  0.86889100  0.70106600  1
  H  144  1  0.72515500  0.44398500  0.09267400  1
  H  145  1  0.98799700  0.14246500  0.75958200  1
  H  148  1  0.02910200  0.09240600  0.36275700  1
  H  149  1  0.06024100  0.06208300  0.81756600  1
  H  150  1  0.06868800  0.06624000  0.86765500  1
  H  157  1  0.92479000  0.25722400  0.58631900  1
  H  158  1  0.81870500  0.33150700  0.56326900  1
  H  161  1  0.22529300  0.94377300  0.09296500  1
  H  162  1  0.48840300  0.64239900  0.75943600  1
  H  165  1  0.53792400  0.58914000  0.36223800  1
  H  166  1  0.56026200  0.56197600  0.81736800  1
  H  167  1  0.56873300  0.56618900  0.86745600  1
  H  174  1  0.42487200  0.75715400  0.58622200  1
  H  175  1  0.31894400  0.83141500  0.56312300  1
  H  176  1  0.85669500  0.15671800  0.15919300  1
  H  177  1  0.35662400  0.65621300  0.15939200  1
  H  184  1  0.82394700  0.38329800  0.58593300  1
  H  190  1  0.32381200  0.88322500  0.58577900  1
  H  193  1  0.56976600  0.44112300  0.20051100  1
  H  194  1  0.06909200  0.94212900  0.20148200  1
  H  195  1  0.98711400  0.02349100  0.63308600  1
  H  204  1  0.95456400  0.00691300  0.05935500  1
  H  205  1  0.25837900  0.50007400  0.93394600  1
  H  206  1  0.36191700  0.47629800  0.02901400  1
  H  214  1  0.52911800  0.47560400  0.72570500  1
  H  217  1  0.48601500  0.48279000  0.29937700  1
  H  225  1  0.12457900  0.12929200  0.26824600  1
  H  226  1  0.30846000  0.42433000  0.42627700  1
  H  227  1  0.39786700  0.45103500  0.33027000  1
  H  240  1  0.78494500  0.16743900  0.21339600  1
  H  242  1  0.95641300  0.04097100  0.10878400  1
  H  243  1  0.52764400  0.46972500  0.24769200  1
  H  252  1  0.35428800  0.35180200  0.82592000  1
  H  254  1  0.34999900  0.35621000  0.90634700  1
  H  255  1  0.37368000  0.31134600  0.88032900  1
  H  256  1  0.27568800  0.34376900  0.87906400  1
  H  258  1  0.47752300  0.45929200  0.77514400  1
  H  263  1  0.29180600  0.00571900  0.48796900  1
  H  264  1  0.39362000  0.50018400  0.48412500  1
  H  265  1  0.38318600  0.50269400  0.53421300  1
  H  267  1  0.30152600  0.99585500  0.56806600  1
  H  268  1  0.35279400  0.03142500  0.54168500  1
  H  269  1  0.35139900  0.96636100  0.53900500  1
  H  271  1  0.44775300  0.50932600  0.58132700  1
  H  282  1  0.92948100  0.41837700  0.91955100  1
  H  283  1  0.41997200  0.98042000  0.05458000  1
  H  284  1  0.56997000  0.98052600  0.05632600  1
  H  286  1  0.16899300  0.40569800  0.91923600  1
  H  287  1  0.09402600  0.43426000  0.89655200  1
  H  288  1  0.08004300  0.37219300  0.90717800  1
  H  290  1  0.78741200  0.46127000  0.99045700  1
  H  292  1  0.70779700  0.97466200  0.03479100  1
  H  298  1  0.91874400  0.35560600  0.57391200  1
  H  311  1  0.16991300  0.33447600  0.25286000  1
  H  312  1  0.26399800  0.30879800  0.38801300  1
  H  313  1  0.18728400  0.23437500  0.38986200  1
  H  315  1  0.02907600  0.22188000  0.25249800  1
  H  316  1  0.11031000  0.24449100  0.22997300  1
  H  317  1  0.02455100  0.28304400  0.24026200  1
  H  319  1  0.30381500  0.38404300  0.32403900  1
  H  321  1  0.10748800  0.16905300  0.36842500  1
  H  329  1  0.45466600  0.50714600  0.05895400  1
  H  330  1  0.75869600  0.99997600  0.93411600  1
  H  331  1  0.86177900  0.97639000  0.02926600  1
  H  339  1  0.03019200  0.97574400  0.72579800  1
  H  342  1  0.97941100  0.98542500  0.30001000  1
  H  350  1  0.62465200  0.62897200  0.26711300  1
  H  351  1  0.79911200  0.92038900  0.42548700  1
  H  352  1  0.89343600  0.95178800  0.33023400  1
  H  365  1  0.28569400  0.66636300  0.21375000  1
  H  367  1  0.45617200  0.54106600  0.10835500  1
  H  368  1  0.02511200  0.97116100  0.24853800  1
  H  377  1  0.85432500  0.85190400  0.82602600  1
  H  379  1  0.84994900  0.85621200  0.90645100  1
  H  380  1  0.87366200  0.81138600  0.88041600  1
  H  381  1  0.77566800  0.84380500  0.87915300  1
  H  383  1  0.97788800  0.95935500  0.77529900  1
  H  390  1  0.81187200  0.50338400  0.49255200  1
  H  391  1  0.87338900  0.00453100  0.48675700  1
  H  392  1  0.87040300  0.00349500  0.53712600  1
  H  394  1  0.80762100  0.49950200  0.57298800  1
  H  395  1  0.86283600  0.53371500  0.54688900  1
  H  396  1  0.86353500  0.46849900  0.54575300  1
  H  398  1  0.94176500  0.00772800  0.58310100  1
  H  409  1  0.42918100  0.91849900  0.91974900  1
  H  410  1  0.91995400  0.48040000  0.05436300  1
  H  411  1  0.06996600  0.48046700  0.05616000  1
  H  413  1  0.66872400  0.90597400  0.91934000  1
  H  414  1  0.59358500  0.93446700  0.89669000  1
  H  415  1  0.57981700  0.87238500  0.90732200  1
  H  417  1  0.28720800  0.96128900  0.99074400  1
  H  419  1  0.20788600  0.47458800  0.03463500  1
  H  425  1  0.41882800  0.85568700  0.57380100  1
  H  438  1  0.66636000  0.83366500  0.25240200  1
  H  439  1  0.76530600  0.80748500  0.38714800  1
  H  440  1  0.68989700  0.73268700  0.38911900  1
  H  442  1  0.52680800  0.72055500  0.25233200  1
  H  443  1  0.60709800  0.74352800  0.22955400  1
  H  444  1  0.52132900  0.78176700  0.24021500  1
  H  446  1  0.80171000  0.88354800  0.32327400  1
  H  448  1  0.61163900  0.66683700  0.36775300  1
  N  7  1  0.06074100  0.99805300  0.10292400  1
  N  21  1  0.92452900  0.15027400  0.69963800  1
  N  22  1  0.69959500  0.38507000  0.65925700  1
  N  28  1  0.01363200  0.04423500  0.25670300  1
  N  53  1  0.56061600  0.49818400  0.10247200  1
  N  67  1  0.42425800  0.65028200  0.69955600  1
  N  68  1  0.19992400  0.88539100  0.65897100  1
  N  74  1  0.51584700  0.54270200  0.25605700  1
  N  98  1  0.98974500  0.03306200  0.76936600  1
  N  99  1  0.56330400  0.47878600  0.58949500  1
  N  103  1  0.93016200  0.08710900  0.21093600  1
  N  106  1  0.92147600  0.09150200  0.15412500  1
  N  123  1  0.48945600  0.53301000  0.76924500  1
  N  124  1  0.05921300  0.97829500  0.58946500  1
  N  128  1  0.43080600  0.58600600  0.21076100  1
  N  131  1  0.42128300  0.59104100  0.15397800  1
  N  151  1  0.15874200  0.00006400  0.54203100  1
  N  152  1  0.16111500  0.00697700  0.48524800  1
  N  153  1  0.81655000  0.32806400  0.63017500  1
  N  156  1  0.89726100  0.24129100  0.62799700  1
  N  168  1  0.67005600  0.50064700  0.54408600  1
  N  169  1  0.68172800  0.50317100  0.48728900  1
  N  170  1  0.31676300  0.82813100  0.63003100  1
  N  173  1  0.39728600  0.74129600  0.62790800  1
  N  179  1  0.76897300  0.47209200  0.03278500  1
  N  181  1  0.08450900  0.15964400  0.32630600  1
  N  186  1  0.26889400  0.97203400  0.03309100  1
  N  188  1  0.58752700  0.65779100  0.32567100  1
  N  207  1  0.23358500  0.46707500  0.99256400  1
  N  208  1  0.94241300  0.98838300  0.92302400  1
  N  228  1  0.47235600  0.47928100  0.43595600  1
  N  229  1  0.32852700  0.38797300  0.36642100  1
  N  248  1  0.42112500  0.42416100  0.87740700  1
  N  251  1  0.41950900  0.41681800  0.82062100  1
  N  278  1  0.08976000  0.43703500  0.96345600  1
  N  281  1  0.91925600  0.44012500  0.96122500  1
  N  307  1  0.11481100  0.24581400  0.29690700  1
  N  310  1  0.20644900  0.32887100  0.29465900  1
  N  332  1  0.73359100  0.96710900  0.99273300  1
  N  333  1  0.44218300  0.48841200  0.92277200  1
  N  353  1  0.95212000  0.98347300  0.43669700  1
  N  354  1  0.82519600  0.88757800  0.36574000  1
  N  373  1  0.92109900  0.92421000  0.87755200  1
  N  376  1  0.91954300  0.91692500  0.82075800  1
  N  405  1  0.58956500  0.93719300  0.96360400  1
  N  408  1  0.41903800  0.94021000  0.96143100  1
  N  434  1  0.61397800  0.74444500  0.29644700  1
  N  437  1  0.70453000  0.82788500  0.29402900  1
  O  12  1  0.67440500  0.40944200  0.60482400  1
  O  17  1  0.93766200  0.12316900  0.75424500  1
  O  58  1  0.17327000  0.90981700  0.60448900  1
  O  63  1  0.43786100  0.62323900  0.75415600  1
  O  178  1  0.72173300  0.47883300  0.08738300  1
  O  180  1  0.06357200  0.13419000  0.27188000  1
  O  185  1  0.22173300  0.97864000  0.08772200  1
  O  187  1  0.56376000  0.63295000  0.27128900  1
  O  203  1  0.28261100  0.46757800  0.93812000  1
  O  224  1  0.36236300  0.40850200  0.42100600  1
  O  328  1  0.78289000  0.96748700  0.93833000  1
  O  349  1  0.85543800  0.90738000  0.42051900  1
