# generated using pymatgen
data_FeAg3H12(C3N)7
_symmetry_space_group_name_H-M   'P 1'
_cell_length_a   12.15176000
_cell_length_b   17.14338000
_cell_length_c   31.63633000
_cell_angle_alpha   90.00874000
_cell_angle_beta   89.98344000
_cell_angle_gamma   89.99955000
_symmetry_Int_Tables_number   1
_chemical_formula_structural   FeAg3H12(C3N)7
_chemical_formula_sum   'Fe8 Ag24 H96 C168 N56'
_cell_volume   6590.55075822
_cell_formula_units_Z   8
loop_
 _symmetry_equiv_pos_site_id
 _symmetry_equiv_pos_as_xyz
  1  'x, y, z'
loop_
 _atom_site_type_symbol
 _atom_site_label
 _atom_site_symmetry_multiplicity
 _atom_site_fract_x
 _atom_site_fract_y
 _atom_site_fract_z
 _atom_site_occupancy
  Fe  Fe0  1  0.74937000  0.99911000  0.57622000  1
  Fe  Fe1  1  0.25047000  0.99927000  0.92378000  1
  Fe  Fe2  1  0.25016000  0.00091000  0.42370000  1
  Fe  Fe3  1  0.74947000  0.00101000  0.07622000  1
  Fe  Fe4  1  0.25056000  0.50020000  0.57176000  1
  Fe  Fe5  1  0.74941000  0.49992000  0.92823000  1
  Fe  Fe6  1  0.74894000  0.50044000  0.42824000  1
  Fe  Fe7  1  0.25095000  0.50047000  0.07177000  1
  Ag  Ag8  1  0.51199000  0.25642000  0.56492000  1
  Ag  Ag9  1  0.08837000  0.17433000  0.54169000  1
  Ag  Ag10  1  0.43127000  0.30837000  0.46927000  1
  Ag  Ag11  1  0.98827000  0.74334000  0.56491000  1
  Ag  Ag12  1  0.41072000  0.82521000  0.54159000  1
  Ag  Ag13  1  0.06805000  0.69148000  0.46908000  1
  Ag  Ag14  1  0.48801000  0.25643000  0.93508000  1
  Ag  Ag15  1  0.91164000  0.17420000  0.95831000  1
  Ag  Ag16  1  0.56876000  0.30829000  0.03077000  1
  Ag  Ag17  1  0.01163000  0.74330000  0.93495000  1
  Ag  Ag18  1  0.58912000  0.82534000  0.95846000  1
  Ag  Ag19  1  0.93183000  0.69147000  0.03091000  1
  Ag  Ag20  1  0.48752000  0.74346000  0.43510000  1
  Ag  Ag21  1  0.91160000  0.82576000  0.45832000  1
  Ag  Ag22  1  0.56875000  0.69170000  0.53076000  1
  Ag  Ag23  1  0.01151000  0.25716000  0.43506000  1
  Ag  Ag24  1  0.58914000  0.17475000  0.45842000  1
  Ag  Ag25  1  0.93191000  0.30863000  0.53084000  1
  Ag  Ag26  1  0.51215000  0.74394000  0.06498000  1
  Ag  Ag27  1  0.08831000  0.82575000  0.04170000  1
  Ag  Ag28  1  0.43129000  0.69169000  0.96932000  1
  Ag  Ag29  1  0.98862000  0.25683000  0.06498000  1
  Ag  Ag30  1  0.41070000  0.17486000  0.04167000  1
  Ag  Ag31  1  0.06816000  0.30853000  0.96908000  1
  H  H32  1  0.58866000  0.03865000  0.64913000  1
  H  H33  1  0.58193000  0.04083000  0.72771000  1
  H  H34  1  0.58608000  0.95224000  0.78732000  1
  H  H35  1  0.58591000  0.95219000  0.86542000  1
  H  H36  1  0.57820000  0.03392000  0.92507000  1
  H  H37  1  0.58558000  0.03248000  0.00298000  1
  H  H38  1  0.41712000  0.52381000  0.64415000  1
  H  H39  1  0.42444000  0.52455000  0.72266000  1
  H  H40  1  0.40042000  0.43362000  0.78237000  1
  H  H41  1  0.39974000  0.43247000  0.86029000  1
  H  H42  1  0.42771000  0.49024000  0.92088000  1
  H  H43  1  0.41925000  0.48861000  0.99856000  1
  H  H44  1  0.91106000  0.96107000  0.64904000  1
  H  H45  1  0.91819000  0.95925000  0.72760000  1
  H  H46  1  0.91411000  0.04782000  0.78737000  1
  H  H47  1  0.91407000  0.04774000  0.86547000  1
  H  H48  1  0.92161000  0.96611000  0.92520000  1
  H  H49  1  0.91395000  0.96838000  0.00310000  1
  H  H50  1  0.08316000  0.47633000  0.64407000  1
  H  H51  1  0.07550000  0.47551000  0.72257000  1
  H  H52  1  0.09941000  0.56629000  0.78241000  1
  H  H53  1  0.10006000  0.56746000  0.86032000  1
  H  H54  1  0.07224000  0.50976000  0.92103000  1
  H  H55  1  0.08109000  0.51152000  0.99871000  1
  H  H56  1  0.41127000  0.03871000  0.85083000  1
  H  H57  1  0.41803000  0.04090000  0.77226000  1
  H  H58  1  0.41395000  0.95223000  0.71261000  1
  H  H59  1  0.41401000  0.95219000  0.63452000  1
  H  H60  1  0.42177000  0.03376000  0.57487000  1
  H  H61  1  0.41432000  0.03224000  0.49698000  1
  H  H62  1  0.58291000  0.52379000  0.85591000  1
  H  H63  1  0.57551000  0.52456000  0.77741000  1
  H  H64  1  0.59954000  0.43366000  0.71763000  1
  H  H65  1  0.60029000  0.43247000  0.63971000  1
  H  H66  1  0.57233000  0.49020000  0.57917000  1
  H  H67  1  0.58079000  0.48856000  0.50149000  1
  H  H68  1  0.08891000  0.96106000  0.85091000  1
  H  H69  1  0.08186000  0.95922000  0.77232000  1
  H  H70  1  0.08587000  0.04773000  0.71266000  1
  H  H71  1  0.08579000  0.04771000  0.63455000  1
  H  H72  1  0.07828000  0.96622000  0.57478000  1
  H  H73  1  0.08586000  0.96852000  0.49688000  1
  H  H74  1  0.91688000  0.47625000  0.85595000  1
  H  H75  1  0.92448000  0.47549000  0.77745000  1
  H  H76  1  0.90051000  0.56637000  0.71763000  1
  H  H77  1  0.89992000  0.56747000  0.63972000  1
  H  H78  1  0.92779000  0.50982000  0.57901000  1
  H  H79  1  0.91892000  0.51166000  0.50133000  1
  H  H80  1  0.41124000  0.96136000  0.35093000  1
  H  H81  1  0.41806000  0.95910000  0.27233000  1
  H  H82  1  0.41391000  0.04766000  0.21265000  1
  H  H83  1  0.41398000  0.04776000  0.13457000  1
  H  H84  1  0.42170000  0.96623000  0.07495000  1
  H  H85  1  0.41432000  0.96782000  0.99705000  1
  H  H86  1  0.58271000  0.47630000  0.35581000  1
  H  H87  1  0.57546000  0.47540000  0.27730000  1
  H  H88  1  0.59953000  0.56632000  0.21760000  1
  H  H89  1  0.60028000  0.56751000  0.13967000  1
  H  H90  1  0.57239000  0.50965000  0.07909000  1
  H  H91  1  0.58097000  0.51141000  0.00140000  1
  H  H92  1  0.08876000  0.03893000  0.35092000  1
  H  H93  1  0.08182000  0.04067000  0.27232000  1
  H  H94  1  0.08587000  0.95217000  0.21267000  1
  H  H95  1  0.08580000  0.95228000  0.13454000  1
  H  H96  1  0.07830000  0.03392000  0.07488000  1
  H  H97  1  0.08587000  0.03178000  0.99696000  1
  H  H98  1  0.91664000  0.52393000  0.35591000  1
  H  H99  1  0.92438000  0.52457000  0.27741000  1
  H  H100  1  0.90054000  0.43367000  0.21759000  1
  H  H101  1  0.89996000  0.43253000  0.13968000  1
  H  H102  1  0.92787000  0.49011000  0.07897000  1
  H  H103  1  0.91911000  0.48841000  0.00129000  1
  H  H104  1  0.58878000  0.96145000  0.14914000  1
  H  H105  1  0.58207000  0.95910000  0.22771000  1
  H  H106  1  0.58610000  0.04776000  0.28733000  1
  H  H107  1  0.58594000  0.04780000  0.36544000  1
  H  H108  1  0.57818000  0.96611000  0.42508000  1
  H  H109  1  0.58547000  0.96773000  0.50299000  1
  H  H110  1  0.41722000  0.47633000  0.14416000  1
  H  H111  1  0.42443000  0.47543000  0.22267000  1
  H  H112  1  0.40037000  0.56632000  0.28238000  1
  H  H113  1  0.39970000  0.56743000  0.36030000  1
  H  H114  1  0.42765000  0.50974000  0.42085000  1
  H  H115  1  0.41913000  0.51155000  0.49855000  1
  H  H116  1  0.91113000  0.03911000  0.14910000  1
  H  H117  1  0.91825000  0.04079000  0.22766000  1
  H  H118  1  0.91417000  0.95220000  0.28738000  1
  H  H119  1  0.91411000  0.95227000  0.36548000  1
  H  H120  1  0.92160000  0.03384000  0.42524000  1
  H  H121  1  0.91390000  0.03168000  0.50314000  1
  H  H122  1  0.08321000  0.52381000  0.14406000  1
  H  H123  1  0.07549000  0.52452000  0.22256000  1
  H  H124  1  0.09935000  0.43367000  0.28238000  1
  H  H125  1  0.10003000  0.43248000  0.36030000  1
  H  H126  1  0.07218000  0.49028000  0.42098000  1
  H  H127  1  0.08096000  0.48856000  0.49867000  1
  C  C128  1  0.58847000  0.15045000  0.56965000  1
  C  C129  1  0.43230000  0.36122000  0.56944000  1
  C  C130  1  0.95740000  0.11836000  0.56761000  1
  C  C131  1  0.29972000  0.25268000  0.49652000  1
  C  C132  1  0.55707000  0.37070000  0.44223000  1
  C  C133  1  0.65958000  0.02081000  0.66777000  1
  C  C134  1  0.65633000  0.02148000  0.71168000  1
  C  C135  1  0.65725000  0.97457000  0.80434000  1
  C  C136  1  0.65710000  0.97445000  0.84833000  1
  C  C137  1  0.65467000  0.01817000  0.94073000  1
  C  C138  1  0.65813000  0.01770000  0.98459000  1
  C  C139  1  0.34353000  0.51256000  0.66279000  1
  C  C140  1  0.34693000  0.51258000  0.70670000  1
  C  C141  1  0.33531000  0.46386000  0.79940000  1
  C  C142  1  0.33494000  0.46337000  0.84340000  1
  C  C143  1  0.34798000  0.49384000  0.93626000  1
  C  C144  1  0.34437000  0.49389000  0.98010000  1
  C  C145  1  0.91118000  0.84893000  0.56966000  1
  C  C146  1  0.06830000  0.63871000  0.56945000  1
  C  C147  1  0.54140000  0.88102000  0.56767000  1
  C  C148  1  0.19981000  0.74691000  0.49627000  1
  C  C149  1  0.94202000  0.62939000  0.44211000  1
  C  C150  1  0.84025000  0.97893000  0.66773000  1
  C  C151  1  0.84375000  0.97853000  0.71162000  1
  C  C152  1  0.84289000  0.02548000  0.80436000  1
  C  C153  1  0.84295000  0.02547000  0.84836000  1
  C  C154  1  0.84503000  0.98203000  0.94079000  1
  C  C155  1  0.84146000  0.98303000  0.98466000  1
  C  C156  1  0.15667000  0.48756000  0.66275000  1
  C  C157  1  0.15308000  0.48749000  0.70665000  1
  C  C158  1  0.16450000  0.53606000  0.79942000  1
  C  C159  1  0.16485000  0.53657000  0.84342000  1
  C  C160  1  0.15203000  0.50617000  0.93635000  1
  C  C161  1  0.15587000  0.50624000  0.98019000  1
  C  C162  1  0.41141000  0.15052000  0.93033000  1
  C  C163  1  0.56774000  0.36118000  0.93054000  1
  C  C164  1  0.04251000  0.11826000  0.93236000  1
  C  C165  1  0.70043000  0.25271000  0.00347000  1
  C  C166  1  0.44295000  0.37065000  0.05786000  1
  C  C167  1  0.34041000  0.02089000  0.83219000  1
  C  C168  1  0.34370000  0.02152000  0.78829000  1
  C  C169  1  0.34279000  0.97451000  0.69561000  1
  C  C170  1  0.34288000  0.97446000  0.65162000  1
  C  C171  1  0.34519000  0.01811000  0.55923000  1
  C  C172  1  0.34173000  0.01755000  0.51536000  1
  C  C173  1  0.65647000  0.51250000  0.83725000  1
  C  C174  1  0.65303000  0.51253000  0.79335000  1
  C  C175  1  0.66469000  0.46390000  0.70063000  1
  C  C176  1  0.66507000  0.46338000  0.65662000  1
  C  C177  1  0.65205000  0.49384000  0.56378000  1
  C  C178  1  0.65567000  0.49388000  0.51994000  1
  C  C179  1  0.08872000  0.84900000  0.93027000  1
  C  C180  1  0.93157000  0.63862000  0.93047000  1
  C  C181  1  0.45842000  0.88110000  0.93238000  1
  C  C182  1  0.80001000  0.74689000  0.00371000  1
  C  C183  1  0.05786000  0.62935000  0.05791000  1
  C  C184  1  0.15977000  0.97896000  0.83223000  1
  C  C185  1  0.15631000  0.97851000  0.78833000  1
  C  C186  1  0.15710000  0.02539000  0.69565000  1
  C  C187  1  0.15700000  0.02546000  0.65164000  1
  C  C188  1  0.15483000  0.98213000  0.55918000  1
  C  C189  1  0.15839000  0.98306000  0.51531000  1
  C  C190  1  0.84334000  0.48747000  0.83728000  1
  C  C191  1  0.84688000  0.48743000  0.79337000  1
  C  C192  1  0.83546000  0.53611000  0.70063000  1
  C  C193  1  0.83514000  0.53660000  0.65663000  1
  C  C194  1  0.84802000  0.50623000  0.56368000  1
  C  C195  1  0.84417000  0.50632000  0.51985000  1
  C  C196  1  0.41134000  0.84958000  0.43030000  1
  C  C197  1  0.56751000  0.63883000  0.43062000  1
  C  C198  1  0.04234000  0.88184000  0.43238000  1
  C  C199  1  0.70045000  0.74726000  0.50349000  1
  C  C200  1  0.44285000  0.62946000  0.55786000  1
  C  C201  1  0.34038000  0.97921000  0.33225000  1
  C  C202  1  0.34363000  0.97844000  0.28834000  1
  C  C203  1  0.34280000  0.02539000  0.19566000  1
  C  C204  1  0.34291000  0.02553000  0.15169000  1
  C  C205  1  0.34523000  0.98195000  0.05928000  1
  C  C206  1  0.34179000  0.98255000  0.01543000  1
  C  C207  1  0.65634000  0.48752000  0.33718000  1
  C  C208  1  0.65295000  0.48743000  0.29327000  1
  C  C209  1  0.66466000  0.53606000  0.20058000  1
  C  C210  1  0.66508000  0.53660000  0.15656000  1
  C  C211  1  0.65213000  0.50613000  0.06371000  1
  C  C212  1  0.65580000  0.50610000  0.01987000  1
  C  C213  1  0.08841000  0.15150000  0.43030000  1
  C  C214  1  0.93127000  0.36163000  0.43051000  1
  C  C215  1  0.45845000  0.11897000  0.43230000  1
  C  C216  1  0.80010000  0.25308000  0.50373000  1
  C  C217  1  0.05785000  0.37074000  0.55785000  1
  C  C218  1  0.15966000  0.02107000  0.33225000  1
  C  C219  1  0.15621000  0.02139000  0.28835000  1
  C  C220  1  0.15715000  0.97452000  0.19568000  1
  C  C221  1  0.15703000  0.97455000  0.15166000  1
  C  C222  1  0.15484000  0.01802000  0.05924000  1
  C  C223  1  0.15843000  0.01715000  0.01537000  1
  C  C224  1  0.84318000  0.51260000  0.33722000  1
  C  C225  1  0.84680000  0.51259000  0.29333000  1
  C  C226  1  0.83548000  0.46387000  0.20057000  1
  C  C227  1  0.83518000  0.46340000  0.15657000  1
  C  C228  1  0.84808000  0.49379000  0.06365000  1
  C  C229  1  0.84430000  0.49371000  0.01980000  1
  C  C230  1  0.58862000  0.84995000  0.06970000  1
  C  C231  1  0.43254000  0.63902000  0.06944000  1
  C  C232  1  0.95743000  0.88183000  0.06761000  1
  C  C233  1  0.29960000  0.74733000  0.99652000  1
  C  C234  1  0.55710000  0.62940000  0.94223000  1
  C  C235  1  0.65969000  0.97925000  0.16779000  1
  C  C236  1  0.65642000  0.97852000  0.21168000  1
  C  C237  1  0.65728000  0.02544000  0.30436000  1
  C  C238  1  0.65714000  0.02553000  0.34836000  1
  C  C239  1  0.65467000  0.98188000  0.44074000  1
  C  C240  1  0.65807000  0.98245000  0.48461000  1
  C  C241  1  0.34361000  0.48758000  0.16280000  1
  C  C242  1  0.34695000  0.48745000  0.20670000  1
  C  C243  1  0.33527000  0.53609000  0.29940000  1
  C  C244  1  0.33492000  0.53656000  0.34339000  1
  C  C245  1  0.34792000  0.50619000  0.43624000  1
  C  C246  1  0.34426000  0.50626000  0.48009000  1
  C  C247  1  0.91144000  0.15119000  0.06972000  1
  C  C248  1  0.06876000  0.36148000  0.06947000  1
  C  C249  1  0.54153000  0.11919000  0.06771000  1
  C  C250  1  0.19995000  0.25306000  0.99621000  1
  C  C251  1  0.94224000  0.37070000  0.94208000  1
  C  C252  1  0.84033000  0.02117000  0.16776000  1
  C  C253  1  0.84383000  0.02153000  0.21165000  1
  C  C254  1  0.84296000  0.97454000  0.30438000  1
  C  C255  1  0.84299000  0.97452000  0.34838000  1
  C  C256  1  0.84500000  0.01797000  0.44082000  1
  C  C257  1  0.84141000  0.01704000  0.48469000  1
  C  C258  1  0.15673000  0.51258000  0.16274000  1
  C  C259  1  0.15309000  0.51255000  0.20664000  1
  C  C260  1  0.16446000  0.46391000  0.29939000  1
  C  C261  1  0.16483000  0.46337000  0.34340000  1
  C  C262  1  0.15194000  0.49387000  0.43632000  1
  C  C263  1  0.15575000  0.49388000  0.48016000  1
  C  C264  1  0.75008000  0.00000000  0.73499000  1
  C  C265  1  0.75010000  0.00002000  0.78159000  1
  C  C266  1  0.74998000  0.99996000  0.87102000  1
  C  C267  1  0.74989000  0.00004000  0.91757000  1
  C  C268  1  0.25001000  0.00001000  0.76497000  1
  C  C269  1  0.25000000  0.00000000  0.71838000  1
  C  C270  1  0.24997000  0.99997000  0.62895000  1
  C  C271  1  0.24999000  0.00001000  0.58241000  1
  C  C272  1  0.24997000  0.99996000  0.26500000  1
  C  C273  1  0.25003000  0.99991000  0.21842000  1
  C  C274  1  0.25006000  0.00002000  0.12900000  1
  C  C275  1  0.25004000  0.00004000  0.08245000  1
  C  C276  1  0.75016000  0.99998000  0.23501000  1
  C  C277  1  0.75016000  0.99997000  0.28161000  1
  C  C278  1  0.75002000  0.00002000  0.37104000  1
  C  C279  1  0.74991000  0.99996000  0.41758000  1
  C  C280  1  0.24995000  0.50002000  0.73000000  1
  C  C281  1  0.24990000  0.49997000  0.77660000  1
  C  C282  1  0.24989000  0.49998000  0.86630000  1
  C  C283  1  0.24996000  0.50001000  0.91295000  1
  C  C284  1  0.75000000  0.50000000  0.77003000  1
  C  C285  1  0.75007000  0.50000000  0.72343000  1
  C  C286  1  0.75015000  0.49999000  0.63373000  1
  C  C287  1  0.75010000  0.50003000  0.58708000  1
  C  C288  1  0.74996000  0.49998000  0.26998000  1
  C  C289  1  0.75009000  0.49999000  0.22338000  1
  C  C290  1  0.75017000  0.49999000  0.13368000  1
  C  C291  1  0.75013000  0.49993000  0.08704000  1
  C  C292  1  0.24996000  0.50001000  0.22999000  1
  C  C293  1  0.24989000  0.49999000  0.27659000  1
  C  C294  1  0.24988000  0.49996000  0.36629000  1
  C  C295  1  0.24988000  0.50003000  0.41293000  1
  N  N296  1  0.63474000  0.09092000  0.57418000  1
  N  N297  1  0.37862000  0.41801000  0.57172000  1
  N  N298  1  0.88179000  0.07977000  0.57747000  1
  N  N299  1  0.22704000  0.22205000  0.51426000  1
  N  N300  1  0.62835000  0.41112000  0.43006000  1
  N  N301  1  0.86433000  0.90823000  0.57418000  1
  N  N302  1  0.12204000  0.58198000  0.57176000  1
  N  N303  1  0.61723000  0.91932000  0.57757000  1
  N  N304  1  0.27234000  0.77762000  0.51405000  1
  N  N305  1  0.87062000  0.58907000  0.42994000  1
  N  N306  1  0.36497000  0.09105000  0.92583000  1
  N  N307  1  0.62150000  0.41792000  0.92825000  1
  N  N308  1  0.11811000  0.07965000  0.92252000  1
  N  N309  1  0.77313000  0.22205000  0.98576000  1
  N  N310  1  0.37170000  0.41117000  0.06998000  1
  N  N311  1  0.13579000  0.90820000  0.92577000  1
  N  N312  1  0.87765000  0.58195000  0.92819000  1
  N  N313  1  0.38271000  0.91948000  0.92243000  1
  N  N314  1  0.72745000  0.77760000  0.98597000  1
  N  N315  1  0.12930000  0.58905000  0.07004000  1
  N  N316  1  0.36513000  0.90916000  0.42587000  1
  N  N317  1  0.62146000  0.58220000  0.42825000  1
  N  N318  1  0.11780000  0.92058000  0.42253000  1
  N  N319  1  0.77302000  0.77791000  0.48570000  1
  N  N320  1  0.37149000  0.58909000  0.57001000  1
  N  N321  1  0.13532000  0.09223000  0.42578000  1
  N  N322  1  0.87733000  0.41828000  0.42823000  1
  N  N323  1  0.38264000  0.08066000  0.42237000  1
  N  N324  1  0.72752000  0.22234000  0.48600000  1
  N  N325  1  0.12912000  0.41115000  0.57004000  1
  N  N326  1  0.63500000  0.90945000  0.07417000  1
  N  N327  1  0.37888000  0.58223000  0.07174000  1
  N  N328  1  0.88194000  0.92058000  0.07741000  1
  N  N329  1  0.22696000  0.77803000  0.01424000  1
  N  N330  1  0.62837000  0.58898000  0.93004000  1
  N  N331  1  0.86439000  0.09196000  0.07421000  1
  N  N332  1  0.12256000  0.41819000  0.07181000  1
  N  N333  1  0.61736000  0.08087000  0.07760000  1
  N  N334  1  0.27235000  0.22239000  0.01407000  1
  N  N335  1  0.87099000  0.41109000  0.92987000  1
  N  N336  1  0.74985000  0.99976000  0.64562000  1
  N  N337  1  0.74974000  0.00050000  0.00684000  1
  N  N338  1  0.25017000  0.99983000  0.85434000  1
  N  N339  1  0.25004000  0.00049000  0.49311000  1
  N  N340  1  0.25004000  0.00022000  0.35438000  1
  N  N341  1  0.25016000  0.99972000  0.99319000  1
  N  N342  1  0.74994000  0.00036000  0.14566000  1
  N  N343  1  0.74969000  0.99962000  0.50687000  1
  N  N344  1  0.25015000  0.50006000  0.64064000  1
  N  N345  1  0.25018000  0.50012000  0.00243000  1
  N  N346  1  0.74985000  0.49995000  0.85940000  1
  N  N347  1  0.74986000  0.50015000  0.49762000  1
  N  N348  1  0.74969000  0.50012000  0.35933000  1
  N  N349  1  0.75003000  0.49995000  0.99756000  1
  N  N350  1  0.25027000  0.50017000  0.14064000  1
  N  N351  1  0.25004000  0.50006000  0.50240000  1
