# generated using pymatgen
data_MnH12(C3N)6
_symmetry_space_group_name_H-M   'P 1'
_cell_length_a   4.49806000
_cell_length_b   9.73845000
_cell_length_c   11.57760730
_cell_angle_alpha   106.49854398
_cell_angle_beta   94.52661553
_cell_angle_gamma   91.89184000
_symmetry_Int_Tables_number   1
_chemical_formula_structural   MnH12(C3N)6
_chemical_formula_sum   'Mn1 H12 C18 N6'
_cell_volume   483.93381380
_cell_formula_units_Z   1
loop_
 _symmetry_equiv_pos_site_id
 _symmetry_equiv_pos_as_xyz
  1  'x, y, z'
loop_
 _atom_site_type_symbol
 _atom_site_label
 _atom_site_symmetry_multiplicity
 _atom_site_fract_x
 _atom_site_fract_y
 _atom_site_fract_z
 _atom_site_occupancy
  Mn  Mn0  1  0.99799000  0.00288000  0.99700000  1
  H  H1  1  0.23103000  0.72385000  0.14290000  1
  H  H2  1  0.46810000  0.49211000  0.12096000  1
  H  H3  1  0.52972000  0.15690000  0.21071000  1
  H  H4  1  0.76484000  0.15886000  0.41030000  1
  H  H5  1  0.82558000  0.88593000  0.23235000  1
  H  H6  1  0.03466000  0.87145000  0.43298000  1
  H  H7  1  0.76445000  0.28044000  0.85024000  1
  H  H8  1  0.52739000  0.51216000  0.87213000  1
  H  H9  1  0.46549000  0.84806000  0.78388000  1
  H  H10  1  0.23181000  0.84450000  0.58375000  1
  H  H11  1  0.17094000  0.11777000  0.76136000  1
  H  H12  1  0.96290000  0.13099000  0.56028000  1
  C  C13  1  0.13267000  0.62739000  0.07669000  1
  C  C14  1  0.48874000  0.79543000  0.98311000  1
  C  C15  1  0.27554000  0.49850000  0.06046000  1
  C  C16  1  0.42935000  0.00663000  0.43882000  1
  C  C17  1  0.86248000  0.63392000  0.01109000  1
  C  C18  1  0.42030000  0.09809000  0.26418000  1
  C  C19  1  0.56835000  0.08827000  0.37229000  1
  C  C20  1  0.01869000  0.95395000  0.27983000  1
  C  C21  1  0.15362000  0.93794000  0.38881000  1
  C  C22  1  0.86319000  0.37695000  0.91630000  1
  C  C23  1  0.50716000  0.20964000  0.01096000  1
  C  C24  1  0.72029000  0.50586000  0.93250000  1
  C  C25  1  0.56763000  0.99634000  0.55477000  1
  C  C26  1  0.13317000  0.37043000  0.98202000  1
  C  C27  1  0.57566000  0.90611000  0.73004000  1
  C  C28  1  0.42834000  0.91515000  0.62157000  1
  C  C29  1  0.97784000  0.04965000  0.71402000  1
  C  C30  1  0.84341000  0.06500000  0.60473000  1
  N  N31  1  0.15587000  0.03086000  0.21575000  1
  N  N32  1  0.28810000  0.85341000  0.94449000  1
  N  N33  1  0.74154000  0.76685000  0.02560000  1
  N  N34  1  0.83995000  0.97349000  0.77849000  1
  N  N35  1  0.70836000  0.15245000  0.05010000  1
  N  N36  1  0.25399000  0.23749000  0.96817000  1
