# generated using pymatgen
data_Co6H32(C24O7)3
_symmetry_space_group_name_H-M   'P 1'
_cell_length_a   7.70012000
_cell_length_b   12.03469000
_cell_length_c   38.65497000
_cell_angle_alpha   90.00000000
_cell_angle_beta   90.00000000
_cell_angle_gamma   89.92776000
_symmetry_Int_Tables_number   1
_chemical_formula_structural   Co6H32(C24O7)3
_chemical_formula_sum   'Co12 H64 C144 O42'
_cell_volume   3582.09744987
_cell_formula_units_Z   2
loop_
 _symmetry_equiv_pos_site_id
 _symmetry_equiv_pos_as_xyz
  1  'x, y, z'
loop_
 _atom_site_type_symbol
 _atom_site_label
 _atom_site_symmetry_multiplicity
 _atom_site_fract_x
 _atom_site_fract_y
 _atom_site_fract_z
 _atom_site_occupancy
  Co  Co0  1  0.22659000  0.12999000  0.00579000  1
  Co  Co1  1  0.86123000  0.14908000  0.01588000  1
  Co  Co2  1  0.81957000  0.88607000  0.00490000  1
  Co  Co3  1  0.58383000  0.13835000  0.51607000  1
  Co  Co4  1  0.37583000  0.37140000  0.50629000  1
  Co  Co5  1  0.51039000  0.88372000  0.48531000  1
  Co  Co6  1  0.35010000  0.63561000  0.49460000  1
  Co  Co7  1  0.71395000  0.65343000  0.50497000  1
  Co  Co8  1  0.74034000  0.39058000  0.51739000  1
  Co  Co9  1  0.07515000  0.38216000  0.01451000  1
  Co  Co10  1  0.18348000  0.86637000  0.99460000  1
  Co  Co11  1  0.96305000  0.63763000  0.98589000  1
  H  H12  1  0.77012000  0.08811000  0.17185000  1
  H  H13  1  0.72993000  0.51967000  0.16168000  1
  H  H14  1  0.20926000  0.51194000  0.14866000  1
  H  H15  1  0.25340000  0.07947000  0.16089000  1
  H  H16  1  0.74493000  0.53948000  0.22518000  1
  H  H17  1  0.76995000  0.05593000  0.23492000  1
  H  H18  1  0.22242000  0.53318000  0.21220000  1
  H  H19  1  0.51127000  0.39367000  0.17416000  1
  H  H20  1  0.43507000  0.83683000  0.13627000  1
  H  H21  1  0.00954000  0.40695000  0.18765000  1
  H  H22  1  0.92672000  0.85179000  0.14950000  1
  H  H23  1  0.24715000  0.05401000  0.22421000  1
  H  H24  1  0.46868000  0.55426000  0.25839000  1
  H  H25  1  0.47419000  0.02625000  0.27382000  1
  H  H26  1  0.72699000  0.35518000  0.29081000  1
  H  H27  1  0.52095000  0.36363000  0.23717000  1
  H  H28  1  0.45421000  0.85676000  0.19972000  1
  H  H29  1  0.00777000  0.37603000  0.25056000  1
  H  H30  1  0.70035000  0.87903000  0.25887000  1
  H  H31  1  0.97617000  0.57041000  0.27309000  1
  H  H32  1  0.94604000  0.87165000  0.21279000  1
  H  H33  1  0.46859000  0.57635000  0.32179000  1
  H  H34  1  0.45656000  0.00678000  0.33744000  1
  H  H35  1  0.71417000  0.34422000  0.35429000  1
  H  H36  1  0.00557000  0.04416000  0.28780000  1
  H  H37  1  0.20959000  0.87023000  0.24785000  1
  H  H38  1  0.70442000  0.91015000  0.32181000  1
  H  H39  1  0.27562000  0.36056000  0.28201000  1
  H  H40  1  0.96224000  0.59619000  0.33639000  1
  H  H41  1  0.98921000  0.03227000  0.35166000  1
  H  H42  1  0.20251000  0.88947000  0.31133000  1
  H  H43  1  0.26235000  0.34117000  0.34530000  1
  H  H44  1  0.31113000  0.66577000  0.64010000  1
  H  H45  1  0.06357000  0.98670000  0.64536000  1
  H  H46  1  0.77746000  0.67071000  0.65145000  1
  H  H47  1  0.58836000  0.00636000  0.65944000  1
  H  H48  1  0.10388000  0.42474000  0.65718000  1
  H  H49  1  0.61811000  0.43957000  0.67137000  1
  H  H50  1  0.34699000  0.10859000  0.67660000  1
  H  H51  1  0.84075000  0.11865000  0.69300000  1
  H  H52  1  0.04581000  0.97016000  0.70902000  1
  H  H53  1  0.07981000  0.45688000  0.72015000  1
  H  H54  1  0.75629000  0.64975000  0.71476000  1
  H  H55  1  0.79779000  0.14965000  0.75533000  1
  H  H56  1  0.55865000  0.98435000  0.72269000  1
  H  H57  1  0.58272000  0.47326000  0.73398000  1
  H  H58  1  0.29802000  0.65039000  0.70365000  1
  H  H59  1  0.34104000  0.14569000  0.73917000  1
  H  H60  1  0.07657000  0.15663000  0.78044000  1
  H  H61  1  0.80876000  0.95670000  0.76888000  1
  H  H62  1  0.27839000  0.95683000  0.75936000  1
  H  H63  1  0.54246000  0.18284000  0.79761000  1
  H  H64  1  0.81003000  0.49457000  0.78463000  1
  H  H65  1  0.03317000  0.63721000  0.74753000  1
  H  H66  1  0.51267000  0.65350000  0.76289000  1
  H  H67  1  0.30265000  0.48335000  0.77248000  1
  H  H68  1  0.06791000  0.17485000  0.84371000  1
  H  H69  1  0.81108000  0.94286000  0.83244000  1
  H  H70  1  0.27368000  0.93373000  0.82279000  1
  H  H71  1  0.82428000  0.51644000  0.84817000  1
  H  H72  1  0.02850000  0.61500000  0.81089000  1
  H  H73  1  0.56294000  0.20301000  0.86086000  1
  H  H74  1  0.52513000  0.63622000  0.82650000  1
  H  H75  1  0.30106000  0.49888000  0.83629000  1
  C  C76  1  0.26604000  0.66075000  0.03309000  1
  C  C77  1  0.84517000  0.31456000  0.07272000  1
  C  C78  1  0.35378000  0.28779000  0.05900000  1
  C  C79  1  0.74559000  0.68668000  0.04749000  1
  C  C80  1  0.85770000  0.29497000  0.10910000  1
  C  C81  1  0.28636000  0.65984000  0.07008000  1
  C  C82  1  0.36946000  0.27159000  0.09566000  1
  C  C83  1  0.77010000  0.67897000  0.08409000  1
  C  C84  1  0.87096000  0.27497000  0.13947000  1
  C  C85  1  0.30088000  0.66434000  0.10115000  1
  C  C86  1  0.79301000  0.67917000  0.11487000  1
  C  C87  1  0.37649000  0.25690000  0.12649000  1
  C  C88  1  0.82443000  0.15026000  0.18900000  1
  C  C89  1  0.88668000  0.25096000  0.17569000  1
  C  C90  1  0.26261000  0.58721000  0.15975000  1
  C  C91  1  0.77634000  0.59646000  0.17287000  1
  C  C92  1  0.32047000  0.67310000  0.13819000  1
  C  C93  1  0.82358000  0.68510000  0.15147000  1
  C  C94  1  0.38391000  0.23817000  0.16327000  1
  C  C95  1  0.31193000  0.14153000  0.17751000  1
  C  C96  1  0.82550000  0.13160000  0.22470000  1
  C  C97  1  0.78606000  0.60757000  0.20882000  1
  C  C98  1  0.27041000  0.59916000  0.19574000  1
  C  C99  1  0.38922000  0.77026000  0.15278000  1
  C  C100  1  0.95799000  0.33023000  0.19791000  1
  C  C101  1  0.45688000  0.31857000  0.18497000  1
  C  C102  1  0.88817000  0.78327000  0.16599000  1
  C  C103  1  0.31016000  0.12642000  0.21339000  1
  C  C104  1  0.88942000  0.21350000  0.24718000  1
  C  C105  1  0.33747000  0.69693000  0.21044000  1
  C  C106  1  0.39895000  0.78187000  0.18874000  1
  C  C107  1  0.95841000  0.31214000  0.23351000  1
  C  C108  1  0.84467000  0.70753000  0.22353000  1
  C  C109  1  0.45983000  0.30224000  0.22074000  1
  C  C110  1  0.89890000  0.79455000  0.20185000  1
  C  C111  1  0.38390000  0.20687000  0.23525000  1
  C  C112  1  0.41199000  0.62803000  0.26974000  1
  C  C113  1  0.78498000  0.28471000  0.30392000  1
  C  C114  1  0.42513000  0.09448000  0.28925000  1
  C  C115  1  0.34038000  0.71108000  0.24853000  1
  C  C116  1  0.84049000  0.72350000  0.26145000  1
  C  C117  1  0.86908000  0.20122000  0.28492000  1
  C  C118  1  0.37367000  0.19428000  0.27332000  1
  C  C119  1  0.76357000  0.81919000  0.27554000  1
  C  C120  1  0.91369000  0.64365000  0.28361000  1
  C  C121  1  0.41161000  0.64050000  0.30569000  1
  C  C122  1  0.41645000  0.08361000  0.32529000  1
  C  C123  1  0.77742000  0.27839000  0.33986000  1
  C  C124  1  0.94010000  0.10901000  0.30223000  1
  C  C125  1  0.26770000  0.80644000  0.26379000  1
  C  C126  1  0.76354000  0.83610000  0.31126000  1
  C  C127  1  0.90839000  0.65916000  0.31945000  1
  C  C128  1  0.31375000  0.28271000  0.29383000  1
  C  C129  1  0.33863000  0.73559000  0.32078000  1
  C  C130  1  0.83379000  0.75571000  0.33333333  1
  C  C131  1  0.85205000  0.18811000  0.35722000  1
  C  C132  1  0.35913000  0.17262000  0.34557000  1
  C  C133  1  0.26506000  0.81789000  0.29979000  1
  C  C134  1  0.93136000  0.10246000  0.33838000  1
  C  C135  1  0.30598000  0.27166000  0.32972000  1
  C  C136  1  0.33872000  0.74785000  0.35786000  1
  C  C137  1  0.81096000  0.76591000  0.37012000  1
  C  C138  1  0.37601000  0.16886000  0.38260000  1
  C  C139  1  0.85237000  0.18739000  0.39440000  1
  C  C140  1  0.34272000  0.75334000  0.38900000  1
  C  C141  1  0.38584000  0.17693000  0.41359000  1
  C  C142  1  0.79377000  0.77190000  0.40104000  1
  C  C143  1  0.84278000  0.19874000  0.42528000  1
  C  C144  1  0.40246000  0.20534000  0.44941000  1
  C  C145  1  0.35379000  0.75211000  0.42607000  1
  C  C146  1  0.76539000  0.76902000  0.43768000  1
  C  C147  1  0.82020000  0.22750000  0.46094000  1
  C  C148  1  0.28060000  0.20427000  0.55936000  1
  C  C149  1  0.21994000  0.83179000  0.53300000  1
  C  C150  1  0.73908000  0.85813000  0.54683000  1
  C  C151  1  0.79207000  0.22958000  0.57461000  1
  C  C152  1  0.20366000  0.83604000  0.57003000  1
  C  C153  1  0.25532000  0.22556000  0.59554000  1
  C  C154  1  0.71796000  0.85946000  0.58361000  1
  C  C155  1  0.77375000  0.24274000  0.61118000  1
  C  C156  1  0.19441000  0.83451000  0.60120000  1
  C  C157  1  0.24108000  0.24433000  0.62605000  1
  C  C158  1  0.70093000  0.85296000  0.61450000  1
  C  C159  1  0.75473000  0.25735000  0.64172000  1
  C  C160  1  0.18765000  0.82700000  0.63843000  1
  C  C161  1  0.68349000  0.83999000  0.65129000  1
  C  C162  1  0.25300000  0.73228000  0.65506000  1
  C  C163  1  0.11461000  0.91323000  0.65802000  1
  C  C164  1  0.22634000  0.26393000  0.66268000  1
  C  C165  1  0.72946000  0.73918000  0.66697000  1
  C  C166  1  0.62168000  0.92795000  0.67145000  1
  C  C167  1  0.73094000  0.27638000  0.67807000  1
  C  C168  1  0.15391000  0.36323000  0.67508000  1
  C  C169  1  0.78223000  0.19535000  0.70186000  1
  C  C170  1  0.65896000  0.37667000  0.68972000  1
  C  C171  1  0.29120000  0.18529000  0.68598000  1
  C  C172  1  0.10490000  0.90401000  0.69410000  1
  C  C173  1  0.14249000  0.38222000  0.71075000  1
  C  C174  1  0.71682000  0.72714000  0.70282000  1
  C  C175  1  0.60674000  0.91575000  0.70728000  1
  C  C176  1  0.76035000  0.21365000  0.73720000  1
  C  C177  1  0.24479000  0.72333000  0.69106000  1
  C  C178  1  0.63966000  0.39600000  0.72517000  1
  C  C179  1  0.28532000  0.20564000  0.72148000  1
  C  C180  1  0.65742000  0.81590000  0.72325000  1
  C  C181  1  0.16956000  0.80878000  0.71079000  1
  C  C182  1  0.20781000  0.30317000  0.73415000  1
  C  C183  1  0.69199000  0.31489000  0.74913000  1
  C  C184  1  0.65879000  0.80691000  0.76140000  1
  C  C185  1  0.15795000  0.79806000  0.74889000  1
  C  C186  1  0.18778000  0.31928000  0.77188000  1
  C  C187  1  0.67826000  0.33612000  0.78668000  1
  C  C188  1  0.12034000  0.23308000  0.79232000  1
  C  C189  1  0.74202000  0.88850000  0.78133000  1
  C  C190  1  0.22309000  0.88229000  0.77044000  1
  C  C191  1  0.75259000  0.43201000  0.80117000  1
  C  C192  1  0.08719000  0.70170000  0.76377000  1
  C  C193  1  0.60417000  0.25582000  0.80846000  1
  C  C194  1  0.58015000  0.71589000  0.77791000  1
  C  C195  1  0.24853000  0.41671000  0.78789000  1
  C  C196  1  0.11727000  0.24292000  0.82821000  1
  C  C197  1  0.74503000  0.87988000  0.81733000  1
  C  C198  1  0.22160000  0.86878000  0.80639000  1
  C  C199  1  0.76059000  0.44446000  0.83715000  1
  C  C200  1  0.08552000  0.68862000  0.79968000  1
  C  C201  1  0.61403000  0.26786000  0.84430000  1
  C  C202  1  0.58608000  0.70645000  0.81396000  1
  C  C203  1  0.24806000  0.42550000  0.82404000  1
  C  C204  1  0.15550000  0.77098000  0.82103000  1
  C  C205  1  0.66926000  0.78815000  0.83370000  1
  C  C206  1  0.18551000  0.33759000  0.84422000  1
  C  C207  1  0.69568000  0.36089000  0.85876000  1
  C  C208  1  0.15199000  0.75780000  0.85807000  1
  C  C209  1  0.68522000  0.77580000  0.87059000  1
  C  C210  1  0.20844000  0.33760000  0.88112000  1
  C  C211  1  0.74012000  0.35948000  0.89486000  1
  C  C212  1  0.15166000  0.75051000  0.88919000  1
  C  C213  1  0.70425000  0.77139000  0.90150000  1
  C  C214  1  0.22041000  0.32600000  0.91196000  1
  C  C215  1  0.77151000  0.34808000  0.92516000  1
  C  C216  1  0.14713000  0.75246000  0.92631000  1
  C  C217  1  0.73707000  0.77329000  0.93800000  1
  C  C218  1  0.22686000  0.29658000  0.94783000  1
  C  C219  1  0.81379000  0.31678000  0.95988000  1
  O  O220  1  0.05681000  0.20589000  0.01887000  1
  O  O221  1  0.99538000  0.80482000  0.00287000  1
  O  O222  1  0.03540000  0.99927000  0.02411000  1
  O  O223  1  0.92450000  0.40020000  0.05886000  1
  O  O224  1  0.16476000  0.58756000  0.01802000  1
  O  O225  1  0.40208000  0.20853000  0.03765000  1
  O  O226  1  0.67653000  0.77698000  0.03435000  1
  O  O227  1  0.75128000  0.24781000  0.05356000  1
  O  O228  1  0.33435000  0.74181000  0.01501000  1
  O  O229  1  0.29035000  0.38150000  0.04703000  1
  O  O230  1  0.79837000  0.60586000  0.02723000  1
  O  O231  1  0.41729000  0.12682000  0.47313000  1
  O  O232  1  0.41358000  0.31094000  0.45746000  1
  O  O233  1  0.34629000  0.84628000  0.44351000  1
  O  O234  1  0.37444000  0.65621000  0.44189000  1
  O  O235  1  0.80355000  0.33316000  0.46902000  1
  O  O236  1  0.76291000  0.67193000  0.45330000  1
  O  O237  1  0.80226000  0.14898000  0.48438000  1
  O  O238  1  0.73316000  0.86190000  0.45474000  1
  O  O239  1  0.21095000  0.49491000  0.49428000  1
  O  O240  1  0.88105000  0.53055000  0.51635000  1
  O  O241  1  0.56060000  0.31443000  0.52020000  1
  O  O242  1  0.52009000  0.71571000  0.50267000  1
  O  O243  1  0.52943000  0.52058000  0.52463000  1
  O  O244  1  0.37459000  0.11872000  0.54958000  1
  O  O245  1  0.29580000  0.91352000  0.51639000  1
  O  O246  1  0.83000000  0.77857000  0.53259000  1
  O  O247  1  0.86828000  0.30784000  0.55653000  1
  O  O248  1  0.21693000  0.27346000  0.53632000  1
  O  O249  1  0.17174000  0.74190000  0.51631000  1
  O  O250  1  0.65971000  0.93206000  0.52748000  1
  O  O251  1  0.74240000  0.13676000  0.55975000  1
  O  O252  1  0.68639000  0.02604000  0.01497000  1
  O  O253  1  0.35770000  0.98986000  0.99482000  1
  O  O254  1  0.15320000  0.84921000  0.94205000  1
  O  O255  1  0.76524000  0.86957000  0.95318000  1
  O  O256  1  0.21597000  0.19084000  0.95613000  1
  O  O257  1  0.82141000  0.21032000  0.96724000  1
  O  O258  1  0.13419000  0.65869000  0.94395000  1
  O  O259  1  0.74809000  0.67916000  0.95529000  1
  O  O260  1  0.23971000  0.37442000  0.97162000  1
  O  O261  1  0.85453000  0.39315000  0.98301000  1
