# generated using pymatgen
data_ScH5C8O5
_symmetry_space_group_name_H-M   'P 1'
_cell_length_a   7.43510000
_cell_length_b   9.12589000
_cell_length_c   19.38308000
_cell_angle_alpha   89.97252000
_cell_angle_beta   90.00000000
_cell_angle_gamma   90.00000000
_symmetry_Int_Tables_number   1
_chemical_formula_structural   ScH5C8O5
_chemical_formula_sum   'Sc4 H20 C32 O20'
_cell_volume   1315.17874644
_cell_formula_units_Z   4
loop_
 _symmetry_equiv_pos_site_id
 _symmetry_equiv_pos_as_xyz
  1  'x, y, z'
loop_
 _atom_site_type_symbol
 _atom_site_label
 _atom_site_symmetry_multiplicity
 _atom_site_fract_x
 _atom_site_fract_y
 _atom_site_fract_z
 _atom_site_occupancy
  Sc  Sc1  1  0.64250000  0.50247000  0.49949000  1.0
  Sc  Sc2  1  0.14250000  0.49752000  0.50051000  1.0
  Sc  Sc3  1  0.64138000  0.99992000  0.99932000  1.0
  Sc  Sc4  1  0.14138000  0.00007000  0.00068000  1.0
  H  H1  1  0.11690000  0.23190000  0.68305000  1.0
  H  H2  1  0.11633000  0.15799000  0.80797000  1.0
  H  H3  1  0.66782000  0.29317000  0.82620000  1.0
  H  H4  1  0.66788000  0.36790000  0.70142000  1.0
  H  H5  1  0.38877000  0.71273000  0.49284000  1.0
  H  H6  1  0.61690000  0.76809000  0.31695000  1.0
  H  H7  1  0.61633000  0.84200000  0.19203000  1.0
  H  H8  1  0.16782000  0.70682000  0.17380000  1.0
  H  H9  1  0.16788000  0.63209000  0.29858000  1.0
  H  H10  1  0.88877000  0.28727000  0.50716000  1.0
  H  H11  1  0.11647000  0.26828000  0.18388000  1.0
  H  H12  1  0.11754000  0.34257000  0.30881000  1.0
  H  H13  1  0.66902000  0.20663000  0.32626000  1.0
  H  H14  1  0.66760000  0.13180000  0.20140000  1.0
  H  H15  1  0.38864000  0.78841000  0.99287000  1.0
  H  H16  1  0.61647000  0.73172000  0.81612000  1.0
  H  H17  1  0.61754000  0.65743000  0.69119000  1.0
  H  H18  1  0.16902000  0.79336000  0.67374000  1.0
  H  H19  1  0.16760000  0.86820000  0.79860000  1.0
  H  H20  1  0.88864000  0.21159000  0.00713000  1.0
  C  C1  1  0.39414000  0.35067000  0.61124000  1.0
  C  C2  1  0.39289000  0.30339000  0.68508000  1.0
  C  C3  1  0.23626000  0.24492000  0.71484000  1.0
  C  C4  1  0.23584000  0.20449000  0.78419000  1.0
  C  C5  1  0.39183000  0.22208000  0.82428000  1.0
  C  C6  1  0.54827000  0.28070000  0.79450000  1.0
  C  C7  1  0.54851000  0.32143000  0.72526000  1.0
  C  C8  1  0.39329000  0.17282000  0.89778000  1.0
  C  C9  1  0.89414000  0.64933000  0.38876000  1.0
  C  C10  1  0.89289000  0.69661000  0.31492000  1.0
  C  C11  1  0.73626000  0.75507000  0.28516000  1.0
  C  C12  1  0.73584000  0.79550000  0.21581000  1.0
  C  C13  1  0.89183000  0.77792000  0.17572000  1.0
  C  C14  1  0.04827000  0.71930000  0.20550000  1.0
  C  C15  1  0.04851000  0.67856000  0.27474000  1.0
  C  C16  1  0.89329000  0.82717000  0.10222000  1.0
  C  C17  1  0.39085000  0.14888000  0.11193000  1.0
  C  C18  1  0.39216000  0.19658000  0.18563000  1.0
  C  C19  1  0.23601000  0.25526000  0.21558000  1.0
  C  C20  1  0.23661000  0.29591000  0.28481000  1.0
  C  C21  1  0.39327000  0.27824000  0.32449000  1.0
  C  C22  1  0.54932000  0.21932000  0.29461000  1.0
  C  C23  1  0.54854000  0.17844000  0.22540000  1.0
  C  C24  1  0.39417000  0.32764000  0.39785000  1.0
  C  C25  1  0.89085000  0.85112000  0.88807000  1.0
  C  C26  1  0.89216000  0.80342000  0.81437000  1.0
  C  C27  1  0.73601000  0.74473000  0.78442000  1.0
  C  C28  1  0.73661000  0.70409000  0.71519000  1.0
  C  C29  1  0.89327000  0.72176000  0.67551000  1.0
  C  C30  1  0.04932000  0.78067000  0.70539000  1.0
  C  C31  1  0.04854000  0.82155000  0.77460000  1.0
  C  C32  1  0.89417000  0.67236000  0.60215000  1.0
  O  O1  1  0.54622000  0.37732000  0.58358000  1.0
  O  O2  1  0.24326000  0.36289000  0.58026000  1.0
  O  O3  1  0.24231000  0.14836000  0.92684000  1.0
  O  O4  1  0.54572000  0.15582000  0.92718000  1.0
  O  O5  1  0.39103000  0.60670000  0.49630000  1.0
  O  O6  1  0.04622000  0.62267000  0.41642000  1.0
  O  O7  1  0.74326000  0.63711000  0.41974000  1.0
  O  O8  1  0.74231000  0.85164000  0.07316000  1.0
  O  O9  1  0.04572000  0.84417000  0.07282000  1.0
  O  O10  1  0.89103000  0.39329000  0.50370000  1.0
  O  O11  1  0.54268000  0.12570000  0.08312000  1.0
  O  O12  1  0.23800000  0.13283000  0.08272000  1.0
  O  O13  1  0.24246000  0.34865000  0.42686000  1.0
  O  O14  1  0.54610000  0.34773000  0.42714000  1.0
  O  O15  1  0.39083000  0.89446000  0.99627000  1.0
  O  O16  1  0.04268000  0.87430000  0.91688000  1.0
  O  O17  1  0.73800000  0.86716000  0.91728000  1.0
  O  O18  1  0.74246000  0.65135000  0.57314000  1.0
  O  O19  1  0.04610000  0.65226000  0.57286000  1.0
  O  O20  1  0.89083000  0.10553000  0.00372000  1.0
