# generated using pymatgen
data_H20C17N6
_symmetry_space_group_name_H-M   'P 1'
_cell_length_a   27.54506182
_cell_length_b   27.54506182
_cell_length_c   28.46699499
_cell_angle_alpha   118.93433860
_cell_angle_beta   118.93433860
_cell_angle_gamma   90.00000000
_symmetry_Int_Tables_number   1
_chemical_formula_structural   H20C17N6
_chemical_formula_sum   'H320 C272 N96'
_cell_volume   15751.73691362
_cell_formula_units_Z   16
loop_
 _symmetry_equiv_pos_site_id
 _symmetry_equiv_pos_as_xyz
  1  'x, y, z'
loop_
 _atom_site_type_symbol
 _atom_site_label
 _atom_site_symmetry_multiplicity
 _atom_site_fract_x
 _atom_site_fract_y
 _atom_site_fract_z
 _atom_site_occupancy
  C  1  1  0.61397150  0.82580150  0.71281000  1
  C  2  1  0.68208400  0.84855800  0.75705700  1
  C  3  1  0.59241675  0.85174925  0.67054700  1
  C  4  1  0.61316525  0.91995775  0.71289200  1
  C  7  1  0.68172900  0.94102850  0.75713600  1
  C  8  1  0.70487075  0.91666775  0.80134150  1
  C  13  1  0.67896600  0.93821300  0.84364650  1
  C  14  1  0.61075475  0.91749525  0.80134150  1
  C  17  1  0.58929875  0.94140275  0.75713550  1
  C  20  1  0.58965175  0.84893225  0.75705600  1
  C  23  1  0.59227450  0.75756650  0.66884600  1
  C  26  1  0.58644250  0.93971200  0.84526550  1
  C  29  1  0.59094425  0.94431325  0.66901050  1
  C  32  1  0.77310550  0.93833800  0.84526300  1
  C  137  1  0.40825200  0.21422350  0.30135150  1
  C  138  1  0.43223900  0.19153900  0.25719750  1
  C  139  1  0.42896200  0.18828150  0.34364050  1
  C  140  1  0.40734625  0.12004975  0.30129150  1
  C  143  1  0.43169250  0.09902400  0.25713850  1
  C  144  1  0.41071650  0.12339900  0.21301350  1
  C  149  1  0.34248375  0.10187425  0.17069800  1
  C  150  1  0.31657200  0.12263300  0.21301600  1
  C  153  1  0.33920550  0.09861350  0.25713950  1
  C  156  1  0.33975275  0.19113125  0.25720050  1
  C  159  1  0.42981675  0.28241825  0.34491500  1
  C  162  1  0.24837575  0.10115225  0.16948450  1
  C  165  1  0.42931500  0.09535900  0.34479800  1
  C  168  1  0.43537525  0.10137525  0.16947450  1
  C  273  1  0.85899000  0.92806550  0.92025700  1
  C  274  1  0.88991350  0.89098700  0.90124200  1
  C  276  1  0.98022375  0.96258725  0.99447300  1
  C  277  1  0.95186450  0.00168400  0.01769000  1
  C  278  1  0.89037475  0.98300925  0.97917350  1
  C  280  1  0.04045500  0.97848550  0.02346350  1
  C  281  1  0.06711200  0.99984750  0.00231750  1
  C  282  1  0.12857425  0.01876125  0.03872250  1
  C  283  1  0.16163675  0.01699375  0.09394450  1
  C  284  1  0.13228450  0.99432900  0.11132000  1
  C  299  1  0.57554125  0.02497225  0.92026900  1
  C  300  1  0.52565525  0.04311125  0.90124500  1
  C  302  1  0.52846300  0.06475750  0.99442550  1
  C  303  1  0.57997250  0.04878000  0.01763700  1
  C  304  1  0.60298100  0.02889750  0.97915400  1
  C  306  1  0.49719300  0.07792900  0.02338550  1
  C  307  1  0.44932850  0.03548500  0.00222750  1
  C  308  1  0.42430050  0.05302950  0.03866250  1
  C  309  1  0.44654775  0.11000675  0.09392750  1
  C  310  1  0.49330750  0.14999900  0.11128900  1
  C  325  1  0.60258575  0.67170925  0.59385200  1
  C  326  1  0.63979050  0.64087600  0.61287500  1
  C  328  1  0.56828250  0.55047850  0.51971650  1
  C  329  1  0.52905250  0.57874950  0.49651300  1
  C  330  1  0.54762350  0.64023950  0.53497250  1
  C  332  1  0.55249575  0.49026275  0.49084050  1
  C  333  1  0.53115475  0.46364025  0.51202700  1
  C  334  1  0.51227975  0.40217975  0.47568200  1
  C  335  1  0.51404450  0.36908550  0.42046150  1
  C  336  1  0.53673650  0.39840500  0.40307700  1
  C  351  1  0.50569475  0.95525625  0.59404950  1
  C  352  1  0.48759750  0.00516750  0.61309750  1
  C  354  1  0.46596725  0.00236575  0.51992550  1
  C  355  1  0.48190025  0.95082875  0.49668900  1
  C  356  1  0.50174525  0.92780025  0.53514950  1
  C  358  1  0.45277900  0.03361800  0.49094400  1
  C  359  1  0.49520250  0.08150250  0.51210650  1
  C  360  1  0.47764425  0.10651375  0.47565300  1
  C  361  1  0.42067650  0.08422050  0.42035950  1
  C  362  1  0.38070550  0.03744300  0.40299600  1
  C  689  1  0.37313150  0.58496150  0.23113000  1
  C  690  1  0.44124400  0.60771800  0.27537700  1
  C  691  1  0.35157675  0.61090925  0.18886700  1
  C  692  1  0.37232525  0.67911775  0.23121200  1
  C  695  1  0.44088900  0.70018850  0.27545600  1
  C  696  1  0.46403075  0.67582775  0.31966150  1
  C  701  1  0.43812600  0.69737300  0.36196650  1
  C  702  1  0.36991475  0.67665525  0.31966150  1
  C  705  1  0.34845875  0.70056275  0.27545550  1
  C  708  1  0.34881175  0.60809225  0.27537600  1
  C  711  1  0.35143450  0.51672650  0.18716600  1
  C  714  1  0.34560250  0.69887200  0.36358550  1
  C  717  1  0.35010425  0.70347325  0.18733050  1
  C  720  1  0.53226550  0.69749800  0.36358300  1
  C  825  1  0.16741190  0.97338340  0.81967130  1
  C  826  1  0.19139900  0.95069900  0.77551750  1
  C  827  1  0.18812190  0.94744140  0.86196030  1
  C  828  1  0.16650615  0.87920965  0.81961130  1
  C  831  1  0.19085250  0.85818400  0.77545850  1
  C  832  1  0.16987650  0.88255900  0.73133350  1
  C  837  1  0.10164375  0.86103425  0.68901800  1
  C  838  1  0.07573200  0.88179300  0.73133600  1
  C  841  1  0.09836550  0.85777350  0.77545950  1
  C  844  1  0.09891275  0.95029125  0.77552050  1
  C  847  1  0.18897665  0.04157815  0.86323480  1
  C  850  1  0.00753575  0.86031225  0.68780450  1
  C  853  1  0.18847490  0.85451890  0.86311780  1
  C  856  1  0.19453525  0.86053525  0.68779450  1
  C  961  1  0.61815000  0.68722550  0.43857700  1
  C  962  1  0.64907350  0.65014700  0.41956200  1
  C  964  1  0.73938375  0.72174725  0.51279300  1
  C  965  1  0.71102450  0.76084400  0.53601000  1
  C  966  1  0.64953475  0.74216925  0.49749350  1
  C  968  1  0.79961500  0.73764550  0.54178350  1
  C  969  1  0.82627200  0.75900750  0.52063750  1
  C  970  1  0.88773425  0.77792125  0.55704250  1
  C  971  1  0.92079675  0.77615375  0.61226450  1
  C  972  1  0.89144450  0.75348900  0.62964000  1
  C  987  1  0.33470125  0.78413225  0.43858900  1
  C  988  1  0.28481525  0.80227125  0.41956500  1
  C  990  1  0.28762300  0.82391750  0.51274550  1
  C  991  1  0.33913250  0.80794000  0.53595700  1
  C  992  1  0.36214100  0.78805750  0.49747400  1
  C  994  1  0.25635300  0.83708900  0.54170550  1
  C  995  1  0.20848850  0.79464500  0.52054750  1
  C  996  1  0.18346050  0.81218950  0.55698250  1
  C  997  1  0.20570775  0.86916675  0.61224750  1
  C  998  1  0.25246750  0.90915900  0.62960900  1
  C  1013  1  0.36174575  0.43086925  0.11217200  1
  C  1014  1  0.39895050  0.40003600  0.13119500  1
  C  1016  1  0.32744250  0.30963850  0.03803650  1
  C  1017  1  0.28821250  0.33790950  0.01483300  1
  C  1018  1  0.30678350  0.39939950  0.05329250  1
  C  1020  1  0.31165575  0.24942275  0.00916050  1
  C  1021  1  0.29031475  0.22280025  0.03034700  1
  C  1022  1  0.27143963  0.16133963  0.99400176  1
  C  1023  1  0.27320440  0.12824540  0.93878130  1
  C  1024  1  0.29589640  0.15756490  0.92139680  1
  C  1039  1  0.26485475  0.71441625  0.11236950  1
  C  1040  1  0.24675750  0.76432750  0.13141750  1
  C  1042  1  0.22512725  0.76152575  0.03824550  1
  C  1043  1  0.24106025  0.70998875  0.01500900  1
  C  1044  1  0.26090525  0.68696025  0.05346950  1
  C  1046  1  0.21193900  0.79277800  0.00926400  1
  C  1047  1  0.25436250  0.84066250  0.03042650  1
  C  1048  1  0.23680413  0.86567363  0.99397276  1
  C  1049  1  0.17983640  0.84338040  0.93867930  1
  C  1050  1  0.13986540  0.79660290  0.92131580  1
  C  1377  1  0.13229150  0.34412150  0.74945000  1
  C  1378  1  0.20040400  0.36687800  0.79369700  1
  C  1379  1  0.11073675  0.37006925  0.70718700  1
  C  1380  1  0.13148525  0.43827775  0.74953200  1
  C  1383  1  0.20004900  0.45934850  0.79377600  1
  C  1384  1  0.22319050  0.43498750  0.83798100  1
  C  1389  1  0.19728575  0.45653275  0.88028600  1
  C  1390  1  0.12907450  0.43581500  0.83798100  1
  C  1393  1  0.10761875  0.45972275  0.79377550  1
  C  1396  1  0.10797175  0.36725225  0.79369600  1
  C  1399  1  0.11059450  0.27588650  0.70548600  1
  C  1402  1  0.10476225  0.45803175  0.88190500  1
  C  1405  1  0.10926425  0.46263325  0.70565050  1
  C  1408  1  0.29142525  0.45665775  0.88190250  1
  C  1513  1  0.92657200  0.73254350  0.33799150  1
  C  1514  1  0.95055900  0.70985900  0.29383750  1
  C  1515  1  0.94728200  0.70660150  0.38028050  1
  C  1516  1  0.92566625  0.63836975  0.33793150  1
  C  1519  1  0.95001250  0.61734400  0.29377850  1
  C  1520  1  0.92903650  0.64171900  0.24965350  1
  C  1525  1  0.86080375  0.62019425  0.20733800  1
  C  1526  1  0.83489200  0.64095300  0.24965600  1
  C  1529  1  0.85752550  0.61693350  0.29377950  1
  C  1532  1  0.85807275  0.70945125  0.29384050  1
  C  1535  1  0.94813675  0.80073825  0.38155500  1
  C  1538  1  0.76669575  0.61947225  0.20612450  1
  C  1541  1  0.94763500  0.61367900  0.38143800  1
  C  1544  1  0.95369525  0.61969525  0.20611450  1
  C  1649  1  0.37730975  0.44638525  0.95689650  1
  C  1650  1  0.40823325  0.40930675  0.93788150  1
  C  1652  1  0.49854375  0.48090725  0.03111300  1
  C  1653  1  0.47018450  0.52000400  0.05433000  1
  C  1654  1  0.40869475  0.50132925  0.01581350  1
  C  1656  1  0.55877500  0.49680550  0.06010350  1
  C  1657  1  0.58543200  0.51816750  0.03895750  1
  C  1658  1  0.64689425  0.53708125  0.07536250  1
  C  1659  1  0.67995675  0.53531375  0.13058450  1
  C  1660  1  0.65060450  0.51264900  0.14796000  1
  C  1675  1  0.09386100  0.54329200  0.95690850  1
  C  1676  1  0.04397500  0.56143100  0.93788450  1
  C  1678  1  0.04678300  0.58307750  0.03106550  1
  C  1679  1  0.09829250  0.56710000  0.05427700  1
  C  1680  1  0.12130100  0.54721750  0.01579400  1
  C  1682  1  0.01551300  0.59624900  0.06002550  1
  C  1683  1  0.96764850  0.55380500  0.03886750  1
  C  1684  1  0.94262050  0.57134950  0.07530250  1
  C  1685  1  0.96486775  0.62832675  0.13056750  1
  C  1686  1  0.01162750  0.66831900  0.14792900  1
  C  1701  1  0.12090575  0.19002925  0.63049200  1
  C  1702  1  0.15811050  0.15919600  0.64951500  1
  C  1704  1  0.08660250  0.06879850  0.55635650  1
  C  1705  1  0.04737250  0.09706950  0.53315300  1
  C  1706  1  0.06594350  0.15855950  0.57161250  1
  C  1708  1  0.07081575  0.00858275  0.52748050  1
  C  1709  1  0.04947475  0.98196025  0.54866700  1
  C  1710  1  0.03059975  0.92049975  0.51232200  1
  C  1711  1  0.03236450  0.88740550  0.45710150  1
  C  1712  1  0.05505650  0.91672500  0.43971700  1
  C  1727  1  0.02401475  0.47357625  0.63068950  1
  C  1728  1  0.00591750  0.52348750  0.64973750  1
  C  1730  1  0.98428725  0.52068575  0.55656550  1
  C  1731  1  0.00022025  0.46914875  0.53332900  1
  C  1732  1  0.02006525  0.44612025  0.57178950  1
  C  1734  1  0.97109900  0.55193800  0.52758400  1
  C  1735  1  0.01352250  0.59982250  0.54874650  1
  C  1736  1  0.99596425  0.62483375  0.51229300  1
  C  1737  1  0.93899650  0.60254050  0.45699950  1
  C  1738  1  0.89902550  0.55576300  0.43963600  1
  C  2065  1  0.89145050  0.10328050  0.26776800  1
  C  2066  1  0.95956300  0.12603700  0.31201500  1
  C  2067  1  0.86989575  0.12922825  0.22550500  1
  C  2068  1  0.89064425  0.19743675  0.26785000  1
  C  2071  1  0.95920800  0.21850750  0.31209400  1
  C  2072  1  0.98234975  0.19414675  0.35629950  1
  C  2077  1  0.95644500  0.21569200  0.39860450  1
  C  2078  1  0.88823375  0.19497425  0.35629950  1
  C  2081  1  0.86677775  0.21888175  0.31209350  1
  C  2084  1  0.86713075  0.12641125  0.31201400  1
  C  2087  1  0.86975350  0.03504550  0.22380400  1
  C  2090  1  0.86392150  0.21719100  0.40022350  1
  C  2093  1  0.86842325  0.22179225  0.22396850  1
  C  2096  1  0.05058450  0.21581700  0.40022100  1
  C  2201  1  0.68573115  0.49170265  0.85630980  1
  C  2202  1  0.70971815  0.46901815  0.81215580  1
  C  2203  1  0.70644115  0.46576065  0.89859880  1
  C  2204  1  0.68482540  0.39752890  0.85624980  1
  C  2207  1  0.70917165  0.37650315  0.81209680  1
  C  2208  1  0.68819550  0.40087800  0.76797150  1
  C  2213  1  0.61996275  0.37935325  0.72565600  1
  C  2214  1  0.59405100  0.40011200  0.76797400  1
  C  2217  1  0.61668465  0.37609265  0.81209780  1
  C  2220  1  0.61723190  0.46861040  0.81215880  1
  C  2223  1  0.70729590  0.55989740  0.89987330  1
  C  2226  1  0.52585475  0.37863125  0.72444250  1
  C  2229  1  0.70679415  0.37283815  0.89975630  1
  C  2232  1  0.71285425  0.37885425  0.72443250  1
  C  2337  1  0.13646900  0.20554450  0.47521500  1
  C  2338  1  0.16739250  0.16846600  0.45620000  1
  C  2340  1  0.25770275  0.24006625  0.54943100  1
  C  2341  1  0.22934350  0.27916300  0.57264800  1
  C  2342  1  0.16785375  0.26048825  0.53413150  1
  C  2344  1  0.31793400  0.25596450  0.57842150  1
  C  2345  1  0.34459100  0.27732650  0.55727550  1
  C  2346  1  0.40605325  0.29624025  0.59368050  1
  C  2347  1  0.43911575  0.29447275  0.64890250  1
  C  2348  1  0.40976350  0.27180800  0.66627800  1
  C  2363  1  0.85302025  0.30245125  0.47522700  1
  C  2364  1  0.80313425  0.32059025  0.45620300  1
  C  2366  1  0.80594200  0.34223650  0.54938350  1
  C  2367  1  0.85745150  0.32625900  0.57259500  1
  C  2368  1  0.88046000  0.30637650  0.53411200  1
  C  2370  1  0.77467200  0.35540800  0.57834350  1
  C  2371  1  0.72680750  0.31296400  0.55718550  1
  C  2372  1  0.70177950  0.33050850  0.59362050  1
  C  2373  1  0.72402675  0.38748575  0.64888550  1
  C  2374  1  0.77078650  0.42747800  0.66624700  1
  C  2389  1  0.88006475  0.94918825  0.14881000  1
  C  2390  1  0.91726950  0.91835500  0.16783300  1
  C  2392  1  0.84576150  0.82795750  0.07467450  1
  C  2393  1  0.80653150  0.85622850  0.05147100  1
  C  2394  1  0.82510250  0.91771850  0.08993050  1
  C  2396  1  0.82997475  0.76774175  0.04579850  1
  C  2397  1  0.80863375  0.74111925  0.06698500  1
  C  2398  1  0.78975875  0.67965875  0.03064000  1
  C  2399  1  0.79152365  0.64656465  0.97541980  1
  C  2400  1  0.81421565  0.67588415  0.95803530  1
  C  2415  1  0.78317375  0.23273525  0.14900750  1
  C  2416  1  0.76507650  0.28264650  0.16805550  1
  C  2418  1  0.74344625  0.27984475  0.07488350  1
  C  2419  1  0.75937925  0.22830775  0.05164700  1
  C  2420  1  0.77922425  0.20527925  0.09010750  1
  C  2422  1  0.73025800  0.31109700  0.04590200  1
  C  2423  1  0.77268150  0.35898150  0.06706450  1
  C  2424  1  0.75512325  0.38399275  0.03061100  1
  C  2425  1  0.69815565  0.36169965  0.97531780  1
  C  2426  1  0.65818465  0.31492215  0.95795430  1
  H  5  1  0.54494775  0.83473575  0.63925200  1
  H  6  1  0.60859450  0.83750200  0.63925700  1
  H  9  1  0.69928650  0.92690000  0.72701950  1
  H  10  1  0.69770950  0.98870200  0.78728100  1
  H  11  1  0.70062750  0.83372750  0.72793050  1
  H  12  1  0.69692175  0.82998675  0.78615550  1
  H  15  1  0.69599975  0.98568075  0.87496550  1
  H  16  1  0.69322350  0.92200900  0.87491150  1
  H  18  1  0.60358650  0.98907350  0.78629000  1
  H  19  1  0.54162800  0.92713650  0.72800900  1
  H  21  1  0.60378950  0.83134700  0.78714550  1
  H  22  1  0.54197700  0.83297300  0.72693800  1
  H  24  1  0.54497550  0.74264650  0.63475950  1
  H  25  1  0.60130175  0.74073575  0.69911350  1
  H  27  1  0.60560150  0.92648900  0.87934350  1
  H  28  1  0.53934700  0.91844900  0.81496950  1
  H  30  1  0.60414425  0.92516075  0.63490900  1
  H  31  1  0.61222900  0.99140650  0.69932950  1
  H  33  1  0.78991000  0.92934250  0.81497800  1
  H  34  1  0.78803975  0.98563425  0.87938450  1
  H  141  1  0.41273600  0.20528600  0.37489050  1
  H  142  1  0.47643750  0.20249800  0.37487600  1
  H  145  1  0.47937125  0.11314325  0.28725500  1
  H  146  1  0.41750975  0.05134225  0.22699600  1
  H  147  1  0.47991325  0.20659975  0.28656650  1
  H  148  1  0.41798475  0.20986425  0.22784850  1
  H  151  1  0.32820525  0.05439475  0.13943200  1
  H  152  1  0.32551675  0.11812725  0.13947300  1
  H  154  1  0.32408900  0.05094100  0.22775050  1
  H  155  1  0.32090150  0.11290500  0.28651000  1
  H  157  1  0.32381225  0.20871525  0.22710250  1
  H  158  1  0.32219350  0.20710750  0.28732300  1
  H  160  1  0.41462850  0.29708000  0.37726100  1
  H  161  1  0.40974050  0.29888100  0.31404650  1
  H  163  1  0.23374625  0.11634525  0.13714550  1
  H  164  1  0.23194150  0.12127650  0.20037550  1
  H  166  1  0.47684575  0.11305675  0.37717650  1
  H  167  1  0.41854525  0.04803475  0.31389950  1
  H  169  1  0.48269875  0.11211575  0.20035600  1
  H  170  1  0.41764475  0.05384775  0.13710150  1
  H  279  1  0.86792650  0.00988750  0.99344950  1
  H  286  1  0.14978550  0.03472050  0.02553900  1
  H  287  1  0.15479750  0.99235050  0.15097450  1
  H  288  1  0.86862975  0.85101475  0.85876700  1
  H  290  1  0.99438325  0.99183325  0.92470250  1
  H  291  1  0.05653650  0.01910400  0.93775200  1
  H  293  1  0.95985200  0.08129850  0.08756450  1
  H  294  1  0.02304975  0.06991675  0.10083850  1
  H  296  1  0.23643750  0.01522950  0.10160600  1
  H  298  1  0.78235625  0.91368325  0.90782350  1
  H  305  1  0.63966250  0.01623350  0.99343400  1
  H  312  1  0.38988125  0.02392525  0.02548900  1
  H  313  1  0.51055950  0.19159700  0.15101750  1
  H  314  1  0.50453900  0.04066800  0.85880150  1
  H  316  1  0.44434700  0.96585300  0.92456250  1
  H  317  1  0.39522675  0.95171025  0.93762850  1
  H  319  1  0.64173475  0.03894425  0.08749150  1
  H  320  1  0.59182800  0.06369100  0.10074100  1
  H  322  1  0.37947400  0.11954000  0.10169350  1
  H  324  1  0.63981825  0.02690575  0.90795200  1
  H  331  1  0.52064425  0.66262025  0.52069950  1
  H  338  1  0.49628825  0.38099375  0.48886300  1
  H  339  1  0.53864775  0.37586675  0.36338000  1
  H  340  1  0.67978175  0.66221975  0.65532900  1
  H  342  1  0.53912425  0.53639825  0.58958500  1
  H  343  1  0.51189050  0.47426950  0.57660300  1
  H  345  1  0.44933125  0.57060675  0.42666000  1
  H  346  1  0.46088750  0.50747050  0.41341800  1
  H  348  1  0.51570775  0.29427225  0.41278800  1
  H  350  1  0.61676825  0.74830975  0.60616600  1
  H  357  1  0.51439400  0.89111050  0.52086350  1
  H  364  1  0.50673525  0.14093825  0.48882150  1
  H  365  1  0.33911250  0.02016000  0.36324650  1
  H  366  1  0.49005075  0.02628625  0.65554550  1
  H  368  1  0.56483750  0.08653200  0.58980150  1
  H  369  1  0.57895675  0.13565325  0.57672850  1
  H  371  1  0.49168725  0.88903325  0.42680700  1
  H  372  1  0.46700350  0.93897350  0.41358950  1
  H  374  1  0.41110900  0.15126500  0.41254050  1
  H  376  1  0.50373550  0.89098200  0.60636850  1
  H  693  1  0.30410775  0.59389575  0.15757200  1
  H  694  1  0.36775450  0.59666200  0.15757700  1
  H  697  1  0.45844650  0.68606000  0.24533950  1
  H  698  1  0.45686950  0.74786200  0.30560100  1
  H  699  1  0.45978750  0.59288750  0.24625050  1
  H  700  1  0.45608175  0.58914675  0.30447550  1
  H  703  1  0.45515975  0.74484075  0.39328550  1
  H  704  1  0.45238350  0.68116900  0.39323150  1
  H  706  1  0.36274650  0.74823350  0.30461000  1
  H  707  1  0.30078800  0.68629650  0.24632900  1
  H  709  1  0.36294950  0.59050700  0.30546550  1
  H  710  1  0.30113700  0.59213300  0.24525800  1
  H  712  1  0.30413550  0.50180650  0.15307950  1
  H  713  1  0.36046175  0.49989575  0.21743350  1
  H  715  1  0.36476150  0.68564900  0.39766350  1
  H  716  1  0.29850700  0.67760900  0.33328950  1
  H  718  1  0.36330425  0.68432075  0.15322900  1
  H  719  1  0.37138900  0.75056650  0.21764950  1
  H  721  1  0.54906733  0.68849983  0.33329267  1
  H  722  1  0.54719975  0.74479425  0.39770450  1
  H  829  1  0.17189590  0.96444590  0.89321030  1
  H  830  1  0.23559740  0.96165790  0.89319580  1
  H  833  1  0.23853115  0.87230315  0.80557480  1
  H  834  1  0.17666975  0.81050225  0.74531600  1
  H  835  1  0.23907315  0.96575965  0.80488630  1
  H  836  1  0.17714475  0.96902425  0.74616850  1
  H  839  1  0.08736525  0.81355475  0.65775200  1
  H  840  1  0.08467675  0.87728725  0.65779300  1
  H  842  1  0.08324900  0.81010100  0.74607050  1
  H  843  1  0.08006140  0.87206490  0.80482980  1
  H  845  1  0.08297225  0.96787525  0.74542250  1
  H  846  1  0.08135340  0.96626740  0.80564280  1
  H  848  1  0.17378840  0.05623990  0.89558080  1
  H  849  1  0.16890040  0.05804090  0.83236630  1
  H  851  1  0.99290625  0.87550525  0.65546550  1
  H  852  1  0.99110150  0.88043650  0.71869550  1
  H  854  1  0.23600565  0.87221665  0.89549630  1
  H  855  1  0.17770515  0.80719465  0.83221930  1
  H  857  1  0.24185875  0.87127575  0.71867600  1
  H  858  1  0.17680475  0.81300775  0.65542150  1
  H  967  1  0.62708650  0.76904750  0.51176950  1
  H  974  1  0.90894550  0.79388050  0.54385900  1
  H  975  1  0.91395750  0.75151050  0.66929450  1
  H  976  1  0.62778975  0.61017475  0.37708700  1
  H  978  1  0.75354325  0.75099325  0.44302250  1
  H  979  1  0.81569650  0.77826400  0.45607200  1
  H  981  1  0.71901200  0.84045850  0.60588450  1
  H  982  1  0.78220975  0.82907675  0.61915850  1
  H  984  1  0.99559750  0.77438950  0.61992600  1
  H  986  1  0.54151625  0.67284325  0.42614350  1
  H  993  1  0.39882250  0.77539350  0.51175400  1
  H  1000  1  0.14904125  0.78308525  0.54380900  1
  H  1001  1  0.26971950  0.95075700  0.66933750  1
  H  1002  1  0.26369900  0.79982800  0.37712150  1
  H  1004  1  0.20350700  0.72501300  0.44288250  1
  H  1005  1  0.15438675  0.71087025  0.45594850  1
  H  1007  1  0.40089475  0.79810425  0.60581150  1
  H  1008  1  0.35098800  0.82285100  0.61906100  1
  H  1010  1  0.13863400  0.87870000  0.62001350  1
  H  1012  1  0.39897825  0.78606575  0.42627200  1
  H  1019  1  0.27980425  0.42178025  0.03901950  1
  H  1026  1  0.25544825  0.14015375  0.00718300  1
  H  1027  1  0.29780765  0.13502665  0.88169980  1
  H  1028  1  0.43894175  0.42137975  0.17364900  1
  H  1030  1  0.29828425  0.29555825  0.10790500  1
  H  1031  1  0.27105050  0.23342950  0.09492300  1
  H  1033  1  0.20849115  0.32976665  0.94497980  1
  H  1034  1  0.22004740  0.26663040  0.93173780  1
  H  1036  1  0.27486765  0.05343215  0.93110780  1
  H  1038  1  0.37592825  0.50746975  0.12448600  1
  H  1045  1  0.27355400  0.65027050  0.03918350  1
  H  1052  1  0.26589525  0.90009825  0.00714150  1
  H  1053  1  0.09827240  0.77931990  0.88156630  1
  H  1054  1  0.24921075  0.78544625  0.17386550  1
  H  1056  1  0.32399750  0.84569200  0.10812150  1
  H  1057  1  0.33811675  0.89481325  0.09504850  1
  H  1059  1  0.25084715  0.64819315  0.94512680  1
  H  1060  1  0.22616340  0.69813340  0.93190930  1
  H  1062  1  0.17026890  0.91042490  0.93086030  1
  H  1064  1  0.26289550  0.65014200  0.12468850  1
  H  1381  1  0.06326775  0.35305575  0.67589200  1
  H  1382  1  0.12691450  0.35582200  0.67589700  1
  H  1385  1  0.21760650  0.44522000  0.76365950  1
  H  1386  1  0.21602925  0.50702175  0.82392050  1
  H  1387  1  0.21894750  0.35204750  0.76457050  1
  H  1388  1  0.21524150  0.34830650  0.82279500  1
  H  1391  1  0.21431950  0.50400050  0.91160500  1
  H  1392  1  0.21154325  0.44032875  0.91155100  1
  H  1394  1  0.12190625  0.50739325  0.82292950  1
  H  1395  1  0.05994800  0.44545650  0.76464900  1
  H  1397  1  0.12210925  0.34966675  0.82378500  1
  H  1398  1  0.06029700  0.35129300  0.76357800  1
  H  1400  1  0.06329550  0.26096650  0.67139950  1
  H  1401  1  0.11962175  0.25905575  0.73575350  1
  H  1403  1  0.12392125  0.44480875  0.91598300  1
  H  1404  1  0.05766675  0.43676875  0.85160900  1
  H  1406  1  0.12246425  0.44348075  0.67154900  1
  H  1407  1  0.13054900  0.50972650  0.73596950  1
  H  1409  1  0.30822975  0.44766225  0.85161750  1
  H  1410  1  0.30635950  0.50395400  0.91602400  1
  H  1517  1  0.93105600  0.72360600  0.41153050  1
  H  1518  1  0.99475750  0.72081800  0.41151600  1
  H  1521  1  0.99769125  0.63146325  0.32389500  1
  H  1522  1  0.93582975  0.56966225  0.26363600  1
  H  1523  1  0.99823325  0.72491975  0.32320650  1
  H  1524  1  0.93630475  0.72818425  0.26448850  1
  H  1527  1  0.84652525  0.57271475  0.17607200  1
  H  1528  1  0.84383675  0.63644725  0.17611300  1
  H  1530  1  0.84240900  0.56926100  0.26439050  1
  H  1531  1  0.83922150  0.63122500  0.32315000  1
  H  1533  1  0.84213225  0.72703525  0.26374250  1
  H  1534  1  0.84051350  0.72542750  0.32396300  1
  H  1536  1  0.93294850  0.81540000  0.41390100  1
  H  1537  1  0.92806050  0.81720100  0.35068650  1
  H  1539  1  0.75206625  0.63466525  0.17378550  1
  H  1540  1  0.75026150  0.63959650  0.23701550  1
  H  1542  1  0.99516575  0.63137675  0.41381650  1
  H  1543  1  0.93686525  0.56635475  0.35053950  1
  H  1545  1  0.00101875  0.63043575  0.23699600  1
  H  1546  1  0.93596475  0.57216775  0.17374150  1
  H  1655  1  0.38624650  0.52820750  0.03008950  1
  H  1662  1  0.66810550  0.55304050  0.06217900  1
  H  1663  1  0.67311750  0.51067050  0.18761450  1
  H  1664  1  0.38694950  0.36933450  0.89540650  1
  H  1666  1  0.51270300  0.51015300  0.96134200  1
  H  1667  1  0.57485625  0.53742375  0.97439150  1
  H  1669  1  0.47817200  0.59961850  0.12420450  1
  H  1670  1  0.54136975  0.58823675  0.13747850  1
  H  1672  1  0.75475750  0.53354950  0.13824600  1
  H  1674  1  0.30067600  0.43200300  0.94446300  1
  H  1681  1  0.15798250  0.53455350  0.03007400  1
  H  1688  1  0.90820125  0.54224525  0.06212900  1
  H  1689  1  0.02887950  0.70991700  0.18765750  1
  H  1690  1  0.02285875  0.55898775  0.89544100  1
  H  1692  1  0.96266675  0.48417275  0.96120200  1
  H  1693  1  0.91354650  0.47003000  0.97426800  1
  H  1695  1  0.16005475  0.55726425  0.12413150  1
  H  1696  1  0.11014800  0.58201100  0.13738100  1
  H  1698  1  0.89779400  0.63786000  0.13833350  1
  H  1700  1  0.15813800  0.54522550  0.94459150  1
  H  1707  1  0.03896425  0.18094025  0.55733950  1
  H  1714  1  0.01460825  0.89931375  0.52550300  1
  H  1715  1  0.05696775  0.89418675  0.40002000  1
  H  1716  1  0.19810175  0.18053975  0.69196900  1
  H  1718  1  0.05744425  0.05471825  0.62622500  1
  H  1719  1  0.03021050  0.99258950  0.61324300  1
  H  1721  1  0.96765125  0.08892675  0.46330000  1
  H  1722  1  0.97920750  0.02579050  0.45005800  1
  H  1724  1  0.03402775  0.81259225  0.44942800  1
  H  1726  1  0.13508825  0.26662975  0.64280600  1
  H  1733  1  0.03271400  0.40943050  0.55750350  1
  H  1740  1  0.02505525  0.65925825  0.52546150  1
  H  1741  1  0.85743250  0.53848000  0.39988650  1
  H  1742  1  0.00837075  0.54460625  0.69218550  1
  H  1744  1  0.08315750  0.60485200  0.62644150  1
  H  1745  1  0.09727675  0.65397325  0.61336850  1
  H  1747  1  0.01000725  0.40735325  0.46344700  1
  H  1748  1  0.98532350  0.45729350  0.45022950  1
  H  1750  1  0.92942900  0.66958500  0.44918050  1
  H  1752  1  0.02205550  0.40930200  0.64300850  1
  H  2069  1  0.82242675  0.11221475  0.19421000  1
  H  2070  1  0.88607350  0.11498100  0.19421500  1
  H  2073  1  0.97676550  0.20437900  0.28197750  1
  H  2074  1  0.97518850  0.26618100  0.34223900  1
  H  2075  1  0.97810650  0.11120650  0.28288850  1
  H  2076  1  0.97440075  0.10746575  0.34111350  1
  H  2079  1  0.97347875  0.26315975  0.42992350  1
  H  2080  1  0.97070250  0.19948800  0.42986950  1
  H  2082  1  0.88106550  0.26655250  0.34124800  1
  H  2083  1  0.81910700  0.20461550  0.28296700  1
  H  2085  1  0.88126850  0.10882600  0.34210350  1
  H  2086  1  0.81945600  0.11045200  0.28189600  1
  H  2088  1  0.82245450  0.02012550  0.18971750  1
  H  2089  1  0.87878075  0.01821475  0.25407150  1
  H  2091  1  0.88308050  0.20396800  0.43430150  1
  H  2092  1  0.81682600  0.19592800  0.36992750  1
  H  2094  1  0.88162325  0.20263975  0.18986700  1
  H  2095  1  0.88970800  0.26888550  0.25428750  1
  H  2097  1  0.06738900  0.20682150  0.36993600  1
  H  2098  1  0.06551875  0.26311325  0.43434250  1
  H  2205  1  0.69021515  0.48276515  0.92984880  1
  H  2206  1  0.75391665  0.47997715  0.92983430  1
  H  2209  1  0.75685040  0.39062240  0.84221330  1
  H  2210  1  0.69498875  0.32882125  0.78195400  1
  H  2211  1  0.75739240  0.48407890  0.84152480  1
  H  2212  1  0.69546375  0.48734325  0.78280650  1
  H  2215  1  0.60568425  0.33187375  0.69439000  1
  H  2216  1  0.60299575  0.39560625  0.69443100  1
  H  2218  1  0.60156800  0.32842000  0.78270850  1
  H  2219  1  0.59838065  0.39038415  0.84146830  1
  H  2221  1  0.60129125  0.48619425  0.78206050  1
  H  2222  1  0.59967265  0.48458665  0.84228130  1
  H  2224  1  0.69210765  0.57455915  0.93221930  1
  H  2225  1  0.68721965  0.57636015  0.86900480  1
  H  2227  1  0.51122525  0.39382425  0.69210350  1
  H  2228  1  0.50942050  0.39875550  0.75533350  1
  H  2230  1  0.75432490  0.39053590  0.93213480  1
  H  2231  1  0.69602440  0.32551390  0.86885780  1
  H  2233  1  0.76017775  0.38959475  0.75531400  1
  H  2234  1  0.69512375  0.33132675  0.69205950  1
  H  2343  1  0.14540550  0.28736650  0.54840750  1
  H  2350  1  0.42726450  0.31219950  0.58049700  1
  H  2351  1  0.43227650  0.26982950  0.70593250  1
  H  2352  1  0.14610875  0.12849375  0.41372500  1
  H  2354  1  0.27186225  0.26931225  0.47966050  1
  H  2355  1  0.33401550  0.29658300  0.49271000  1
  H  2357  1  0.23733100  0.35877750  0.64252250  1
  H  2358  1  0.30052875  0.34739575  0.65579650  1
  H  2360  1  0.51391650  0.29270850  0.65656400  1
  H  2362  1  0.05983525  0.19116225  0.46278150  1
  H  2369  1  0.91714150  0.29371250  0.54839200  1
  H  2376  1  0.66736025  0.30140425  0.58044700  1
  H  2377  1  0.78803850  0.46907600  0.70597550  1
  H  2378  1  0.78201800  0.31814700  0.41375950  1
  H  2380  1  0.72182600  0.24333200  0.47952050  1
  H  2381  1  0.67270575  0.22918925  0.49258650  1
  H  2383  1  0.91921375  0.31642325  0.64244950  1
  H  2384  1  0.86930700  0.34117000  0.65569900  1
  H  2386  1  0.65695300  0.39701900  0.65665150  1
  H  2388  1  0.91729725  0.30438475  0.46291000  1
  H  2395  1  0.79812325  0.94009925  0.07565750  1
  H  2402  1  0.77376725  0.65847275  0.04382100  1
  H  2403  1  0.81612690  0.65334590  0.91833830  1
  H  2404  1  0.95726075  0.93969875  0.21028700  1
  H  2406  1  0.81660325  0.81387725  0.14454300  1
  H  2407  1  0.78936950  0.75174850  0.13156100  1
  H  2409  1  0.72681039  0.84808588  0.98161827  1
  H  2410  1  0.73836665  0.78494965  0.96837630  1
  H  2412  1  0.79318690  0.57175140  0.96774630  1
  H  2414  1  0.89424725  0.02578875  0.16112400  1
  H  2421  1  0.79187300  0.16858950  0.07582150  1
  H  2428  1  0.78421425  0.41841725  0.04377950  1
  H  2429  1  0.61659165  0.29763915  0.91820480  1
  H  2430  1  0.76752975  0.30376525  0.21050350  1
  H  2432  1  0.84231650  0.36401100  0.14475950  1
  H  2433  1  0.85643575  0.41313225  0.13168650  1
  H  2435  1  0.76916639  0.16651238  0.98176527  1
  H  2436  1  0.74448265  0.21645265  0.96854780  1
  H  2438  1  0.68858815  0.42874415  0.96749880  1
  H  2440  1  0.78121450  0.16846100  0.16132650  1
  N  275  1  0.94879925  0.90975125  0.93791550  1
  N  285  1  0.07337625  0.97670775  0.07638100  1
  N  289  1  0.03671425  0.00380925  0.95048650  1
  N  292  1  0.98077900  0.05554800  0.07331900  1
  N  295  1  0.22280875  0.03674425  0.13173050  1
  N  297  1  0.79794150  0.90913000  0.88025100  1
  N  301  1  0.50341575  0.06107225  0.93789300  1
  N  311  1  0.51727475  0.13261775  0.07634800  1
  N  315  1  0.42782975  0.97969375  0.95037650  1
  N  318  1  0.60659775  0.05049975  0.07323750  1
  N  321  1  0.42322125  0.12807925  0.13177350  1
  N  323  1  0.59664350  0.00391400  0.88032050  1
  N  327  1  0.62112900  0.58198800  0.57624800  1
  N  337  1  0.55429150  0.45731100  0.43793950  1
  N  341  1  0.52716575  0.49406775  0.56383500  1
  N  344  1  0.47516450  0.54974550  0.44092600  1
  N  347  1  0.49423700  0.30791550  0.38266900  1
  N  349  1  0.62143700  0.73276000  0.63379950  1
  N  353  1  0.46965625  0.02741575  0.57645950  1
  N  363  1  0.39809800  0.01349900  0.43796000  1
  N  367  1  0.55098475  0.10303975  0.56398150  1
  N  370  1  0.48016575  0.92419025  0.44107900  1
  N  373  1  0.40259650  0.10752050  0.38248750  1
  N  375  1  0.52674775  0.93414975  0.63399500  1
  N  963  1  0.70795925  0.66891125  0.45623550  1
  N  973  1  0.83253625  0.73586775  0.59470100  1
  N  977  1  0.79587425  0.76296925  0.46880650  1
  N  980  1  0.73993900  0.81470800  0.59163900  1
  N  983  1  0.98196875  0.79590425  0.65005050  1
  N  985  1  0.55710150  0.66829000  0.39857100  1
  N  989  1  0.26257575  0.82023225  0.45621300  1
  N  999  1  0.27643475  0.89177775  0.59466800  1
  N  1003  1  0.18698975  0.73885375  0.46869650  1
  N  1006  1  0.36575775  0.80965975  0.59155750  1
  N  1009  1  0.18238125  0.88723925  0.65009350  1
  N  1011  1  0.35580350  0.76307400  0.39864050  1
  N  1015  1  0.38028900  0.34114800  0.09456800  1
  N  1025  1  0.31345140  0.21647090  0.95625930  1
  N  1029  1  0.28632575  0.25322775  0.08215500  1
  N  1032  1  0.23432440  0.30890540  0.95924580  1
  N  1035  1  0.25339690  0.06707540  0.90098880  1
  N  1037  1  0.38059700  0.49192000  0.15211950  1
  N  1041  1  0.22881625  0.78657575  0.09477950  1
  N  1051  1  0.15725790  0.77265890  0.95627980  1
  N  1055  1  0.31014475  0.86219975  0.08230150  1
  N  1058  1  0.23932565  0.68335015  0.95939880  1
  N  1061  1  0.16175640  0.86668040  0.90080730  1
  N  1063  1  0.28590775  0.69330975  0.15231500  1
  N  1651  1  0.46711900  0.42807100  0.97455500  1
  N  1661  1  0.59169625  0.49502775  0.11302100  1
  N  1665  1  0.55503400  0.52212900  0.98712601  1
  N  1668  1  0.49909900  0.57386800  0.10995900  1
  N  1671  1  0.74112875  0.55506425  0.16837050  1
  N  1673  1  0.31626125  0.42744975  0.91689050  1
  N  1677  1  0.02173550  0.57939200  0.97453250  1
  N  1687  1  0.03559475  0.65093775  0.11298800  1
  N  1691  1  0.94614951  0.49801350  0.98701601  1
  N  1694  1  0.12491775  0.56881975  0.10987750  1
  N  1697  1  0.94154125  0.64639925  0.16841350  1
  N  1699  1  0.11496325  0.52223375  0.91696000  1
  N  1703  1  0.13944900  0.10030800  0.61288800  1
  N  1713  1  0.07261150  0.97563100  0.47457950  1
  N  1717  1  0.04548575  0.01238775  0.60047500  1
  N  1720  1  0.99348450  0.06806550  0.47756600  1
  N  1723  1  0.01255700  0.82623550  0.41930900  1
  N  1725  1  0.13975700  0.25108000  0.67043950  1
  N  1729  1  0.98797625  0.54573575  0.61309950  1
  N  1739  1  0.91641800  0.53181900  0.47460000  1
  N  1743  1  0.06930475  0.62135975  0.60062150  1
  N  1746  1  0.99848575  0.44251025  0.47771900  1
  N  1749  1  0.92091650  0.62584050  0.41912750  1
  N  1751  1  0.04506775  0.45246975  0.67063500  1
  N  2339  1  0.22627825  0.18723025  0.49287350  1
  N  2349  1  0.35085525  0.25418675  0.63133900  1
  N  2353  1  0.31419325  0.28128825  0.50544450  1
  N  2356  1  0.25825800  0.33302700  0.62827700  1
  N  2359  1  0.50028775  0.31422325  0.68668850  1
  N  2361  1  0.07542050  0.18660900  0.43520900  1
  N  2365  1  0.78089475  0.33855125  0.49285100  1
  N  2375  1  0.79475375  0.41009675  0.63130600  1
  N  2379  1  0.70530875  0.25717275  0.50533450  1
  N  2382  1  0.88407675  0.32797875  0.62819550  1
  N  2385  1  0.70070025  0.40555825  0.68673150  1
  N  2387  1  0.87412250  0.28139300  0.43527850  1
  N  2391  1  0.89860800  0.85946700  0.13120600  1
  N  2401  1  0.83177063  0.73479014  0.99289777  1
  N  2405  1  0.80464475  0.77154675  0.11879300  1
  N  2408  1  0.75264364  0.82722463  0.99588427  1
  N  2411  1  0.77171615  0.58539465  0.93762730  1
  N  2413  1  0.89891600  0.01023900  0.18875750  1
  N  2417  1  0.74713525  0.30489475  0.13141750  1
  N  2427  1  0.67557714  0.29097814  0.99291827  1
  N  2431  1  0.82846375  0.38051875  0.11893950  1
  N  2434  1  0.75764489  0.20166938  0.99603727  1
  N  2437  1  0.68007565  0.38499965  0.93744580  1
  N  2439  1  0.80422675  0.21162875  0.18895300  1
