# generated using pymatgen
data_H4C7N
_symmetry_space_group_name_H-M   'P 1'
_cell_length_a   9.87440000
_cell_length_b   59.74345000
_cell_length_c   59.74340000
_cell_angle_alpha   119.99991695
_cell_angle_beta   90.00000000
_cell_angle_gamma   90.00000000
_symmetry_Int_Tables_number   1
_chemical_formula_structural   H4C7N
_chemical_formula_sum   'H144 C252 N36'
_cell_volume   30522.62942853
_cell_formula_units_Z   36
loop_
 _symmetry_equiv_pos_site_id
 _symmetry_equiv_pos_as_xyz
  1  'x, y, z'
loop_
 _atom_site_type_symbol
 _atom_site_label
 _atom_site_symmetry_multiplicity
 _atom_site_fract_x
 _atom_site_fract_y
 _atom_site_fract_z
 _atom_site_occupancy
  C  1  1  0.98309100  0.89184300  0.33695300  1
  C  3  1  0.98154100  0.84599200  0.31026000  1
  C  5  1  0.98485200  0.86545500  0.35639100  1
  C  7  1  0.97906500  0.89179900  0.57014400  1
  C  9  1  0.98132500  0.84595000  0.55093400  1
  C  11  1  0.97723200  0.86546600  0.52431500  1
  C  13  1  0.97960100  0.82278100  0.28552400  1
  C  14  1  0.94130000  0.79886100  0.28323300  1
  C  15  1  0.94307300  0.77572800  0.25927700  1
  C  16  1  0.98501500  0.77507900  0.23627000  1
  C  17  1  0.02047300  0.79909100  0.23843600  1
  C  18  1  0.01726200  0.82238800  0.26244400  1
  C  21  1  0.99281600  0.75093800  0.21216000  1
  C  22  1  0.95598000  0.74859500  0.18812500  1
  C  26  1  0.97085700  0.75084000  0.55386400  1
  C  27  1  0.00752900  0.74853400  0.57558400  1
  C  29  1  0.97832100  0.77498900  0.55390700  1
  C  30  1  0.94259200  0.79897700  0.57575900  1
  C  31  1  0.94568600  0.82229100  0.57508200  1
  C  32  1  0.98350200  0.82272400  0.55242400  1
  C  33  1  0.02201000  0.79883000  0.53078400  1
  C  34  1  0.02037000  0.77568000  0.53157700  1
  C  39  1  0.98811500  0.86362700  0.37929700  1
  C  40  1  0.03200200  0.88485000  0.40299200  1
  C  41  1  0.03122600  0.88380200  0.42595800  1
  C  42  1  0.98472100  0.86163700  0.42645500  1
  C  43  1  0.94446500  0.84010100  0.40264200  1
  C  44  1  0.94674400  0.84102800  0.37949800  1
  C  47  1  0.97691300  0.86163900  0.45042700  1
  C  48  1  0.01710900  0.84009900  0.45269900  1
  C  49  1  0.01499200  0.84103400  0.47677300  1
  C  50  1  0.97380300  0.86364400  0.49958400  1
  C  51  1  0.92997300  0.88487200  0.49711800  1
  C  52  1  0.93061300  0.88381800  0.47309900  1
  C  59  1  0.98126100  0.91748800  0.34156600  1
  C  60  1  0.86669900  0.93325700  0.35333600  1
  C  61  1  0.87292700  0.96026200  0.36387800  1
  C  62  1  0.99534100  0.97261200  0.36386800  1
  C  63  1  0.10948000  0.95666200  0.35180400  1
  C  64  1  0.10263400  0.92956600  0.34074500  1
  C  69  1  0.96740300  0.97253700  0.62405900  1
  C  70  1  0.85209200  0.95671400  0.61967800  1
  C  71  1  0.85838400  0.92962500  0.60356500  1
  C  72  1  0.98058900  0.91741700  0.59121200  1
  C  73  1  0.09634500  0.93303200  0.59571600  1
  C  74  1  0.09038900  0.96004500  0.61215800  1
  C  236  1  0.96464900  0.67676700  0.55060300  1
  C  238  1  0.00116400  0.67686300  0.14133200  1
  C  239  1  0.96036500  0.72456400  0.16485200  1
  C  240  1  0.00068500  0.70163700  0.16451100  1
  C  241  1  0.04022000  0.70412300  0.18846400  1
  C  242  1  0.03723300  0.72809200  0.21156200  1
  C  246  1  0.96408200  0.70153900  0.55220500  1
  C  247  1  0.92467900  0.70397600  0.53070700  1
  C  248  1  0.92711800  0.72795000  0.53158200  1
  C  249  1  0.00363000  0.72450300  0.57482500  1
  C  289  1  0.96209300  0.64978800  0.56947700  1
  C  291  1  0.96377200  0.63069100  0.52365400  1
  C  293  1  0.00464300  0.64983900  0.09547100  1
  C  295  1  0.00638900  0.63079000  0.12226100  1
  C  299  1  0.95783400  0.64481300  0.59030800  1
  C  300  1  0.85045000  0.62995900  0.59183500  1
  C  301  1  0.85711400  0.61982000  0.60861900  1
  C  302  1  0.97346500  0.62341200  0.62391000  1
  C  303  1  0.08018600  0.63857200  0.62254100  1
  C  304  1  0.07216100  0.64933500  0.60623400  1
  C  310  1  0.99027400  0.62345300  0.01463700  1
  C  311  1  0.88571700  0.63921200  0.03138400  1
  C  312  1  0.89487400  0.64995200  0.05844400  1
  C  313  1  0.00801600  0.64478100  0.06961600  1
  C  314  1  0.11336300  0.62933900  0.05300100  1
  C  315  1  0.10562100  0.61920100  0.02609300  1
  C  379  1  0.01151900  0.41766000  0.09543300  1
  C  381  1  0.99833400  0.43625100  0.14123300  1
  C  383  1  0.02365200  0.46339900  0.12258800  1
  C  385  1  0.96000000  0.55535300  0.90621600  1
  C  387  1  0.96394000  0.53651400  0.86035900  1
  C  389  1  0.95731800  0.50951600  0.87944000  1
  C  391  1  0.97915100  0.32293900  0.43197400  1
  C  393  1  0.99628800  0.29572700  0.45047600  1
  C  395  1  0.99833400  0.34177800  0.47760300  1
  C  397  1  0.99735100  0.55529400  0.66428100  1
  C  399  1  0.99310800  0.53650700  0.69134600  1
  C  401  1  0.99452500  0.50947500  0.64527500  1
  C  403  1  0.94730000  0.32316600  0.90629100  1
  C  405  1  0.95959600  0.29593100  0.86048400  1
  C  407  1  0.93606500  0.34176500  0.87914000  1
  C  409  1  0.98023600  0.41744800  0.33714300  1
  C  411  1  0.96295800  0.43589700  0.30989200  1
  C  413  1  0.96046700  0.46305800  0.35593600  1
  C  415  1  0.99174600  0.43454800  0.16433900  1
  C  416  1  0.94973100  0.41186800  0.16433800  1
  C  417  1  0.94239100  0.41088800  0.18748300  1
  C  418  1  0.97737000  0.43248300  0.21171000  1
  C  419  1  0.02318500  0.45484300  0.21150000  1
  C  420  1  0.02946500  0.45589700  0.18853100  1
  C  423  1  0.96693700  0.43232000  0.23569900  1
  C  424  1  0.92085400  0.45446600  0.25846000  1
  C  425  1  0.91805300  0.45537300  0.28244200  1
  C  426  1  0.95975200  0.43406400  0.28501400  1
  C  427  1  0.00123100  0.41153600  0.26212500  1
  C  428  1  0.00501900  0.41070800  0.23805900  1
  C  435  1  0.92785800  0.26827200  0.81319800  1
  C  436  1  0.96520000  0.27108700  0.83739500  1
  C  438  1  0.96517100  0.53813900  0.83719200  1
  C  439  1  0.92619100  0.51668300  0.81318900  1
  C  440  1  0.93004500  0.51758000  0.79010800  1
  C  441  1  0.97480100  0.53984600  0.78957500  1
  C  442  1  0.01094100  0.56153800  0.81365800  1
  C  443  1  0.00570700  0.56075100  0.83691400  1
  C  446  1  0.98406300  0.53985300  0.76546500  1
  C  447  1  0.94910000  0.56163400  0.76314200  1
  C  448  1  0.95395500  0.56085100  0.73909900  1
  C  449  1  0.99288400  0.53815400  0.71614500  1
  C  450  1  0.03082200  0.51660800  0.71861900  1
  C  451  1  0.02738900  0.51750200  0.74259800  1
  C  458  1  0.99952900  0.27085500  0.44866100  1
  C  459  1  0.04052900  0.26829800  0.47001500  1
  C  461  1  0.03257900  0.48828400  0.12491800  1
  C  462  1  0.08469300  0.49105000  0.10436100  1
  C  463  1  0.08441400  0.51509400  0.10547900  1
  C  464  1  0.03023400  0.53740800  0.12702100  1
  C  465  1  0.98284800  0.53490900  0.14803800  1
  C  466  1  0.98446500  0.51081800  0.14704800  1
  C  469  1  0.01950900  0.56115900  0.12671300  1
  C  470  1  0.05218600  0.58536900  0.14847300  1
  C  471  1  0.04603300  0.60835500  0.14729300  1
  C  472  1  0.00759000  0.60799200  0.12427200  1
  C  473  1  0.97112200  0.58384900  0.10281000  1
  C  474  1  0.97616900  0.56101500  0.10406000  1
  C  480  1  0.96576800  0.60788800  0.49887000  1
  C  481  1  0.00921100  0.58411000  0.49624400  1
  C  482  1  0.00741800  0.56122000  0.47218300  1
  C  483  1  0.96012400  0.56089500  0.44965000  1
  C  484  1  0.92032700  0.58479300  0.45207700  1
  C  485  1  0.92373600  0.60787100  0.47619700  1
  C  487  1  0.95190000  0.53699600  0.42564100  1
  C  488  1  0.99253100  0.53479200  0.40187900  1
  C  489  1  0.99204500  0.51069600  0.37876300  1
  C  490  1  0.95252800  0.48784200  0.37861700  1
  C  491  1  0.90747600  0.49023100  0.40220300  1
  C  492  1  0.90607500  0.51427900  0.42511400  1
  C  499  1  0.95549000  0.48471100  0.87744700  1
  C  500  1  0.99141800  0.48202400  0.89893100  1
  C  501  1  0.98591700  0.45794800  0.89769500  1
  C  502  1  0.94258300  0.43544100  0.87503500  1
  C  503  1  0.91028600  0.43790400  0.85326900  1
  C  504  1  0.91708100  0.46205700  0.85442200  1
  C  507  1  0.93141700  0.41138400  0.87473600  1
  C  508  1  0.97832500  0.38782600  0.85371000  1
  C  509  1  0.97603700  0.36471500  0.85468500  1
  C  510  1  0.92788800  0.36434500  0.87682900  1
  C  511  1  0.87628900  0.38771300  0.89740300  1
  C  512  1  0.87714900  0.41064300  0.89629100  1
  C  519  1  0.00592800  0.36447400  0.50238200  1
  C  520  1  0.05045700  0.38808900  0.50477200  1
  C  521  1  0.05169800  0.41100000  0.52882500  1
  C  522  1  0.00624800  0.41149600  0.55154800  1
  C  523  1  0.96606700  0.38770800  0.54933900  1
  C  524  1  0.96662900  0.36460100  0.52523700  1
  C  527  1  0.99798900  0.43549100  0.57546300  1
  C  528  1  0.03791600  0.43790500  0.59935000  1
  C  529  1  0.03463900  0.46202100  0.62243600  1
  C  530  1  0.99233400  0.48468900  0.62247700  1
  C  531  1  0.94860800  0.48207200  0.59871800  1
  C  532  1  0.95042600  0.45802200  0.57581800  1
  C  539  1  0.01187400  0.39698000  0.06946700  1
  C  540  1  0.89801800  0.38070000  0.05877400  1
  C  541  1  0.88596100  0.36434900  0.03176000  1
  C  542  1  0.98854500  0.36319900  0.01460300  1
  C  543  1  0.10489700  0.37873700  0.02555800  1
  C  544  1  0.11539400  0.39556000  0.05241400  1
  C  547  1  0.97003600  0.34945100  0.98711500  1
  C  548  1  0.85387400  0.35410400  0.97616500  1
  C  549  1  0.84359800  0.34412800  0.94931200  1
  C  550  1  0.94688700  0.32841700  0.93224400  1
  C  551  1  0.06056400  0.32279400  0.94294500  1
  C  552  1  0.07253000  0.33341900  0.96995400  1
  C  559  1  0.98743700  0.60960100  0.63770800  1
  C  560  1  0.88228600  0.60884300  0.65348600  1
  C  561  1  0.89004700  0.59257000  0.66429600  1
  C  562  1  0.00238100  0.57606300  0.65920000  1
  C  563  1  0.10831500  0.57700100  0.64373700  1
  C  564  1  0.10195100  0.59371800  0.63352200  1
  C  569  1  0.95688700  0.57615700  0.93205800  1
  C  570  1  0.85064200  0.57763700  0.94864100  1
  C  571  1  0.85846500  0.59438900  0.97555400  1
  C  572  1  0.97494800  0.60971100  0.98705600  1
  C  573  1  0.08049700  0.60841000  0.97034600  1
  C  574  1  0.07121400  0.59214300  0.94328200  1
  C  579  1  0.96889700  0.32800600  0.41126400  1
  C  580  1  0.86032400  0.34317200  0.41072400  1
  C  581  1  0.86227400  0.35342900  0.39401200  1
  C  582  1  0.97503000  0.34965100  0.37785300  1
  C  583  1  0.08306800  0.33425200  0.37829700  1
  C  584  1  0.07969000  0.32338600  0.39454000  1
  C  587  1  0.98454300  0.36345300  0.36400300  1
  C  588  1  0.87639600  0.36388700  0.34861800  1
  C  589  1  0.87972300  0.38009500  0.33771100  1
  C  590  1  0.99065900  0.39676900  0.34224900  1
  C  591  1  0.09935100  0.39623200  0.35739100  1
  C  592  1  0.09735200  0.37957900  0.36771500  1
  C  1040  1  0.97743100  0.22157100  0.79006500  1
  C  1041  1  0.93310800  0.24421200  0.79025100  1
  C  1042  1  0.00575600  0.24834400  0.83741800  1
  C  1043  1  0.01204500  0.22418100  0.81429700  1
  C  1047  1  0.95884500  0.24794400  0.42607800  1
  C  1048  1  0.95537300  0.22386200  0.42521600  1
  C  1049  1  0.99281600  0.22151000  0.44686100  1
  C  1050  1  0.03791600  0.24430000  0.46908600  1
  C  1087  1  0.98705700  0.19738700  0.76608200  1
  C  1088  1  0.03412900  0.19670600  0.74335000  1
  C  1090  1  0.98396800  0.19742700  0.44687200  1
  C  1091  1  0.93856700  0.19690300  0.46909800  1
  C  1105  1  0.96538000  0.08128600  0.66407500  1
  C  1107  1  0.98676700  0.12692100  0.69175200  1
  C  1109  1  0.98566700  0.10860500  0.64579800  1
  C  1111  1  0.00141200  0.08130200  0.43270200  1
  C  1113  1  0.98187300  0.12697800  0.45077200  1
  C  1115  1  0.98266500  0.10856200  0.47832500  1
  C  1117  1  0.99202500  0.14985400  0.71671100  1
  C  1118  1  0.94999000  0.15025100  0.73958800  1
  C  1119  1  0.94732700  0.17347500  0.76368900  1
  C  1120  1  0.03588500  0.17365300  0.71934800  1
  C  1123  1  0.93608600  0.17386600  0.47008200  1
  C  1124  1  0.97760200  0.14994200  0.44879400  1
  C  1125  1  0.01840500  0.15021900  0.42619300  1
  C  1126  1  0.02172100  0.17341200  0.42527500  1
  C  1129  1  0.99220600  0.11091000  0.62324000  1
  C  1130  1  0.03678700  0.08981000  0.59954400  1
  C  1131  1  0.03641800  0.09106000  0.57670200  1
  C  1132  1  0.98914300  0.11326600  0.57637000  1
  C  1133  1  0.94913000  0.13474700  0.60024200  1
  C  1134  1  0.95135100  0.13364900  0.62329400  1
  C  1137  1  0.97972400  0.11325000  0.55243200  1
  C  1138  1  0.01956900  0.13473000  0.55002700  1
  C  1139  1  0.01736900  0.13360200  0.52586500  1
  C  1140  1  0.97647800  0.11085600  0.50319000  1
  C  1141  1  0.93200400  0.08976300  0.50580400  1
  C  1142  1  0.93250400  0.09102800  0.52990300  1
  C  1149  1  0.00642500  0.00026500  0.37831400  1
  C  1150  1  0.90832300  0.01665900  0.37655900  1
  C  1151  1  0.91249600  0.04375800  0.39301100  1
  C  1152  1  0.01325200  0.05533400  0.41227900  1
  C  1153  1  0.11237000  0.03904300  0.41382800  1
  C  1154  1  0.11013300  0.01212500  0.39697700  1
  C  1159  1  0.95235600  0.05529500  0.65843000  1
  C  1160  1  0.85408200  0.03910000  0.64028900  1
  C  1161  1  0.85536200  0.01217700  0.63017700  1
  C  1162  1  0.95720000  0.00020600  0.63725700  1
  C  1163  1  0.05435200  0.01650700  0.65572500  1
  C  1164  1  0.05119300  0.04361400  0.66638600  1
  H  19  1  0.05345500  0.79977400  0.22255100  1
  H  20  1  0.04721300  0.83905900  0.26299800  1
  H  23  1  0.92143500  0.76437100  0.18740500  1
  H  24  1  0.91046900  0.79792500  0.29910700  1
  H  25  1  0.91226600  0.75918000  0.25889100  1
  H  28  1  0.04166700  0.76433700  0.59209800  1
  H  35  1  0.90952100  0.79963400  0.59231000  1
  H  36  1  0.91556300  0.83894400  0.59120300  1
  H  37  1  0.05294000  0.79793100  0.51399800  1
  H  38  1  0.05138900  0.75915400  0.51541400  1
  H  45  1  0.90849900  0.82374600  0.40205300  1
  H  46  1  0.91297500  0.82525900  0.36290000  1
  H  53  1  0.05294600  0.82373500  0.43692600  1
  H  54  1  0.04869600  0.82525700  0.47759400  1
  H  55  1  0.89633100  0.90151000  0.51286500  1
  H  56  1  0.06580600  0.90147800  0.40388100  1
  H  57  1  0.89671100  0.89966800  0.47242400  1
  H  58  1  0.06520300  0.89964300  0.44248000  1
  H  65  1  0.20076200  0.96480200  0.35183100  1
  H  66  1  0.18961500  0.91895100  0.33377500  1
  H  67  1  0.77921500  0.92531400  0.35550700  1
  H  68  1  0.78968100  0.97103000  0.37344700  1
  H  75  1  0.76038300  0.96494800  0.62740500  1
  H  76  1  0.77081500  0.91911000  0.59956100  1
  H  77  1  0.18464400  0.92497900  0.58599100  1
  H  78  1  0.17480500  0.97071600  0.61379000  1
  H  243  1  0.92970900  0.72386900  0.14815000  1
  H  244  1  0.07325500  0.68839800  0.18945200  1
  H  245  1  0.06934500  0.72861700  0.22810900  1
  H  250  1  0.03429100  0.72383600  0.59084800  1
  H  251  1  0.89225900  0.68820600  0.51396900  1
  H  252  1  0.89518600  0.72844300  0.51553500  1
  H  297  1  0.07422200  0.62531300  0.16326900  1
  H  298  1  0.89032500  0.62455500  0.47716800  1
  H  305  1  0.16727500  0.64121800  0.63287600  1
  H  306  1  0.15482400  0.65878100  0.60461100  1
  H  307  1  0.79646600  0.61962200  0.65657800  1
  H  308  1  0.76851200  0.62537500  0.57979600  1
  H  309  1  0.16766900  0.61877000  0.97788900  1
  H  316  1  0.79933200  0.64234300  0.02387100  1
  H  317  1  0.81361700  0.65987900  0.06969300  1
  H  318  1  0.19443600  0.62431900  0.06027600  1
  H  421  1  0.05414000  0.47078600  0.22823700  1
  H  422  1  0.06387200  0.47266500  0.18982000  1
  H  429  1  0.88844100  0.47044600  0.25788000  1
  H  430  1  0.88482700  0.47207800  0.29815400  1
  H  431  1  0.03366200  0.39565500  0.26287700  1
  H  432  1  0.92097000  0.39589100  0.14743700  1
  H  433  1  0.04093000  0.39432400  0.22232500  1
  H  434  1  0.90732900  0.39431300  0.18652700  1
  H  437  1  0.89446900  0.28380000  0.81189200  1
  H  444  1  0.04569900  0.57804200  0.81442500  1
  H  445  1  0.03599700  0.57675600  0.85365400  1
  H  452  1  0.91535600  0.57820300  0.77893200  1
  H  453  1  0.92440300  0.57691600  0.73841000  1
  H  454  1  0.06275300  0.49980600  0.70286800  1
  H  455  1  0.89307900  0.49995000  0.81214600  1
  H  456  1  0.05807000  0.50139500  0.74310500  1
  H  457  1  0.89844800  0.50155200  0.77351300  1
  H  460  1  0.07320300  0.28402800  0.48676200  1
  H  467  1  0.94088600  0.55041900  0.16386000  1
  H  468  1  0.94406100  0.50971000  0.16224500  1
  H  475  1  0.08542200  0.58639100  0.16518900  1
  H  476  1  0.93970100  0.58251000  0.08585100  1
  H  477  1  0.12266500  0.47546000  0.08807500  1
  H  478  1  0.94741700  0.54413500  0.08803700  1
  H  479  1  0.12292800  0.51600100  0.09003800  1
  H  486  1  0.88403800  0.58549600  0.43639200  1
  H  493  1  0.02818400  0.55060200  0.40133600  1
  H  494  1  0.02690300  0.50985200  0.36221900  1
  H  495  1  0.87503000  0.47439200  0.40305100  1
  H  496  1  0.04360200  0.58310800  0.51188900  1
  H  497  1  0.87201200  0.51491000  0.44160900  1
  H  498  1  0.04133800  0.54463500  0.47137500  1
  H  505  1  0.87722100  0.42221200  0.83653300  1
  H  506  1  0.88923100  0.46303800  0.83842900  1
  H  513  1  0.02035000  0.38748000  0.83787600  1
  H  514  1  0.01619700  0.34838400  0.83948200  1
  H  515  1  0.83825600  0.38843700  0.91369700  1
  H  516  1  0.02285600  0.49763700  0.91589700  1
  H  517  1  0.83892100  0.42701600  0.91174200  1
  H  518  1  0.01439000  0.45709300  0.91373200  1
  H  525  1  0.93071800  0.38713700  0.56515000  1
  H  526  1  0.93229200  0.34803000  0.52440000  1
  H  533  1  0.07457600  0.42222900  0.60002700  1
  H  534  1  0.06822600  0.46299000  0.63910900  1
  H  535  1  0.91405300  0.49771900  0.59773700  1
  H  536  1  0.08270800  0.38895900  0.48893300  1
  H  537  1  0.91633700  0.45722200  0.55924600  1
  H  538  1  0.08545400  0.42751200  0.52945700  1
  H  545  1  0.17914500  0.37935800  0.01391000  1
  H  546  1  0.19737800  0.40765800  0.05934800  1
  H  553  1  0.77998100  0.36647600  0.98781800  1
  H  554  1  0.76186200  0.34937300  0.94239400  1
  H  555  1  0.14022600  0.31254200  0.93136700  1
  H  556  1  0.81816900  0.38209500  0.07034100  1
  H  557  1  0.15940800  0.33000800  0.97712100  1
  H  558  1  0.79889800  0.35383500  0.02459000  1
  H  565  1  0.80834800  0.59141100  0.67422700  1
  H  566  1  0.18873500  0.56456500  0.63875000  1
  H  567  1  0.17773200  0.59271400  0.62135000  1
  H  568  1  0.78010200  0.60806200  0.60804200  1
  H  575  1  0.15313800  0.59057500  0.93207500  1
  H  576  1  0.76864400  0.56559300  0.94133000  1
  H  577  1  0.18104800  0.60704200  0.01476900  1
  H  578  1  0.78228800  0.59376600  0.98686200  1
  H  585  1  0.16772100  0.33150000  0.36731800  1
  H  586  1  0.16319400  0.31369800  0.39544100  1
  H  593  1  0.79159100  0.35296900  0.34594900  1
  H  594  1  0.79605200  0.38100600  0.32806500  1
  H  595  1  0.17866800  0.40885000  0.36200100  1
  H  596  1  0.78117000  0.34786600  0.42339100  1
  H  597  1  0.17524500  0.38073100  0.37956500  1
  H  598  1  0.78460800  0.36534000  0.39520800  1
  H  1039  1  0.06783700  0.21320500  0.74395400  1
  H  1044  1  0.90246900  0.24344600  0.77350900  1
  H  1045  1  0.03409200  0.24924000  0.85432500  1
  H  1046  1  0.04594300  0.20850200  0.81526900  1
  H  1051  1  0.07001500  0.24372000  0.48508200  1
  H  1052  1  0.90623500  0.21348500  0.48505800  1
  H  1053  1  0.92687300  0.24868000  0.41016300  1
  H  1054  1  0.92020700  0.20810300  0.40877000  1
  H  1089  1  0.06969900  0.17462000  0.70365500  1
  H  1092  1  0.90330400  0.17492600  0.48684000  1
  H  1121  1  0.91589700  0.13368500  0.73878200  1
  H  1122  1  0.91059900  0.17288600  0.77940300  1
  H  1127  1  0.05067100  0.13355600  0.41032200  1
  H  1128  1  0.05695900  0.17269900  0.40882100  1
  H  1135  1  0.91271700  0.15111200  0.60091300  1
  H  1136  1  0.91692400  0.14927800  0.63994300  1
  H  1143  1  0.05616500  0.15108800  0.56570300  1
  H  1144  1  0.05178500  0.14922900  0.52483700  1
  H  1145  1  0.89857900  0.07305900  0.49010000  1
  H  1146  1  0.07017200  0.07311200  0.59856300  1
  H  1147  1  0.89865900  0.07524600  0.53071200  1
  H  1148  1  0.07029200  0.07527100  0.56012300  1
  H  1155  1  0.83023700  0.00885900  0.36363700  1
  H  1156  1  0.83531000  0.05473400  0.39212300  1
  H  1157  1  0.18440100  0.04657600  0.42807700  1
  H  1158  1  0.18008200  0.00108400  0.39974800  1
  H  1165  1  0.13104100  0.00863200  0.66108200  1
  H  1166  1  0.12762700  0.05453100  0.67853800  1
  H  1167  1  0.78334200  0.04670500  0.63341000  1
  H  1168  1  0.78618200  0.00121300  0.61615300  1
  N  2  1  0.98315400  0.87019700  0.31309800  1
  N  4  1  0.98227000  0.84437400  0.33226800  1
  N  6  1  0.98426600  0.88894400  0.35803600  1
  N  8  1  0.97957800  0.87013600  0.57231900  1
  N  10  1  0.98028100  0.84436800  0.52732600  1
  N  12  1  0.97757200  0.88894400  0.54617700  1
  N  235  1  0.96523600  0.67373300  0.57186800  1
  N  237  1  0.99972100  0.67379000  0.11701400  1
  N  290  1  0.96378900  0.65487800  0.52689000  1
  N  292  1  0.96173200  0.62886500  0.54537900  1
  N  294  1  0.00458200  0.65499300  0.14317500  1
  N  296  1  0.00757000  0.62896200  0.09871300  1
  N  380  1  0.99702700  0.41515200  0.11681700  1
  N  382  1  0.01050700  0.45997100  0.14329600  1
  N  384  1  0.02445100  0.44180400  0.09895000  1
  N  386  1  0.96551000  0.55775400  0.88467600  1
  N  388  1  0.95976300  0.51280100  0.85851900  1
  N  390  1  0.95631400  0.53124300  0.90298500  1
  N  392  1  0.98537300  0.29893600  0.42939200  1
  N  394  1  0.00193900  0.31754100  0.47421700  1
  N  396  1  0.98631500  0.34379200  0.45606800  1
  N  398  1  0.99336600  0.55773800  0.68824900  1
  N  400  1  0.99384600  0.51276500  0.66948200  1
  N  402  1  0.99745200  0.53116500  0.64340200  1
  N  404  1  0.96086200  0.29925300  0.88490000  1
  N  406  1  0.94831400  0.31760600  0.85842300  1
  N  408  1  0.93522000  0.34381000  0.90277900  1
  N  410  1  0.97411900  0.41483300  0.31312500  1
  N  412  1  0.95698700  0.45964900  0.33169000  1
  N  414  1  0.97271200  0.44154400  0.35797800  1
  N  1106  1  0.97412300  0.10250700  0.68822000  1
  N  1108  1  0.99146200  0.12920800  0.67013700  1
  N  1110  1  0.97201700  0.08498300  0.64349600  1
  N  1112  1  0.99337000  0.10256900  0.42984800  1
  N  1114  1  0.97752500  0.12921000  0.47465100  1
  N  1116  1  0.99525400  0.08493600  0.45695900  1
