# generated using pymatgen
data_SiH40(C13O)4
_symmetry_space_group_name_H-M   'P 1'
_cell_length_a   42.90405000
_cell_length_b   42.90400000
_cell_length_c   42.91740000
_cell_angle_alpha   90.00000000
_cell_angle_beta   90.00000000
_cell_angle_gamma   119.99988435
_symmetry_Int_Tables_number   1
_chemical_formula_structural   SiH40(C13O)4
_chemical_formula_sum   'Si6 H240 C312 O24'
_cell_volume   68416.46260602
_cell_formula_units_Z   6
loop_
 _symmetry_equiv_pos_site_id
 _symmetry_equiv_pos_as_xyz
  1  'x, y, z'
loop_
 _atom_site_type_symbol
 _atom_site_label
 _atom_site_symmetry_multiplicity
 _atom_site_fract_x
 _atom_site_fract_y
 _atom_site_fract_z
 _atom_site_occupancy
  Si  7  1  0.76510900  0.23786200  0.74841400  1
  Si  48  1  0.47379400  0.23573100  0.41508100  1
  Si  89  1  0.76297800  0.52704100  0.08175200  1
  Si  130  1  0.23615900  0.76256700  0.24840000  1
  Si  171  1  0.52745600  0.76468200  0.91506500  1
  Si  212  1  0.23826700  0.47338100  0.58173300  1
  H  26  1  0.86145200  0.22906500  0.70084800  1
  H  27  1  0.80429000  0.20452400  0.72440300  1
  H  28  1  0.87720000  0.33377000  0.71259400  1
  H  29  1  0.81885100  0.30918400  0.73384000  1
  H  30  1  0.73290300  0.28285200  0.73922000  1
  H  31  1  0.69651800  0.28449100  0.69892100  1
  H  32  1  0.71245000  0.20989400  0.64713400  1
  H  33  1  0.74700600  0.20615200  0.68848000  1
  H  34  1  0.69802300  0.17211900  0.73541000  1
  H  35  1  0.67424900  0.11279000  0.75482200  1
  H  36  1  0.76613800  0.14686600  0.81139600  1
  H  37  1  0.79103300  0.20627400  0.79126600  1
  H  38  1  0.82057200  0.28723500  0.79099900  1
  H  39  1  0.70695700  0.23309300  0.78334400  1
  H  40  1  0.70427600  0.26478400  0.82776500  1
  H  41  1  0.81748600  0.31853300  0.83539700  1
  H  67  1  0.36863900  0.13936800  0.36753800  1
  H  68  1  0.40126600  0.19653500  0.39107900  1
  H  69  1  0.45760600  0.12363400  0.37926500  1
  H  70  1  0.49137000  0.18198600  0.40049700  1
  H  71  1  0.55099600  0.26795500  0.40591400  1
  H  72  1  0.58903400  0.30434000  0.36562500  1
  H  73  1  0.49851900  0.28838100  0.31379500  1
  H  74  1  0.46020800  0.25382200  0.35513500  1
  H  75  1  0.47513000  0.30281100  0.40204900  1
  H  76  1  0.43956200  0.32658500  0.42143200  1
  H  77  1  0.38175000  0.23471700  0.47802700  1
  H  78  1  0.41627500  0.20982200  0.45792600  1
  H  79  1  0.46768600  0.18025800  0.45766000  1
  H  80  1  0.52719900  0.29387300  0.45000600  1
  H  81  1  0.56157300  0.29653400  0.49441400  1
  H  82  1  0.50207100  0.18332600  0.50205000  1
  H  108  1  0.77176900  0.63219600  0.03420700  1
  H  109  1  0.79630900  0.59956900  0.05774500  1
  H  110  1  0.66706700  0.54322500  0.04592500  1
  H  111  1  0.69165800  0.50946200  0.06715900  1
  H  112  1  0.71799800  0.44983700  0.07260200  1
  H  113  1  0.71634800  0.41178700  0.03232200  1
  H  114  1  0.79089500  0.50228800  0.98047300  1
  H  115  1  0.79464800  0.54061200  0.02179900  1
  H  116  1  0.82872800  0.52571400  0.06872400  1
  H  117  1  0.88806300  0.56127700  0.08812200  1
  H  118  1  0.85399300  0.61908700  0.14470800  1
  H  119  1  0.79457900  0.58456500  0.12459000  1
  H  120  1  0.71359900  0.53314400  0.12432000  1
  H  121  1  0.76772700  0.47365400  0.11669100  1
  H  122  1  0.73601600  0.43928400  0.16110000  1
  H  123  1  0.68228600  0.49876300  0.16871400  1
  H  149  1  0.13978400  0.77134300  0.20086200  1
  H  150  1  0.19695300  0.79589000  0.22439800  1
  H  151  1  0.12406500  0.66664800  0.21258900  1
  H  152  1  0.18242200  0.69124500  0.23381800  1
  H  153  1  0.26839500  0.71759600  0.23925200  1
  H  154  1  0.30479000  0.71594300  0.19897000  1
  H  155  1  0.28882400  0.79048200  0.14712200  1
  H  156  1  0.25426200  0.79424000  0.18845200  1
  H  157  1  0.30324700  0.82831500  0.23538900  1
  H  158  1  0.32701600  0.88765300  0.25479600  1
  H  159  1  0.23512500  0.85356900  0.31136500  1
  H  160  1  0.21023900  0.79416100  0.29124500  1
  H  161  1  0.18067300  0.71318800  0.29096300  1
  H  162  1  0.29429200  0.76732800  0.28334600  1
  H  163  1  0.29694900  0.73562400  0.32776600  1
  H  164  1  0.18373700  0.68187800  0.33536700  1
  H  190  1  0.63260400  0.86106300  0.86753800  1
  H  191  1  0.59997800  0.80388800  0.89107000  1
  H  192  1  0.54363000  0.87678500  0.87927100  1
  H  193  1  0.50986600  0.81842700  0.90049200  1
  H  194  1  0.45025400  0.73245400  0.90590200  1
  H  195  1  0.41221500  0.69606700  0.86561100  1
  H  196  1  0.50273100  0.71202600  0.81378400  1
  H  197  1  0.54104200  0.74657900  0.85512300  1
  H  198  1  0.52613500  0.69760400  0.90204900  1
  H  199  1  0.56169900  0.67383700  0.92147100  1
  H  200  1  0.61948500  0.76572600  0.97804800  1
  H  201  1  0.58496700  0.79061200  0.95791300  1
  H  202  1  0.53356100  0.82016100  0.95764000  1
  H  203  1  0.47407400  0.70654200  0.95000600  1
  H  204  1  0.43972100  0.70387600  0.99442600  1
  H  205  1  0.49918700  0.81708500  0.00204700  1
  H  231  1  0.22947800  0.36823200  0.53419600  1
  H  232  1  0.20494200  0.40086400  0.55773100  1
  H  233  1  0.33418500  0.45719500  0.54592000  1
  H  234  1  0.30959800  0.49096500  0.56715200  1
  H  235  1  0.28324800  0.55058500  0.57256700  1
  H  236  1  0.28489600  0.58862100  0.53227300  1
  H  237  1  0.21034400  0.49810100  0.48044800  1
  H  238  1  0.20659200  0.45979200  0.52178600  1
  H  239  1  0.17252100  0.47471500  0.56870100  1
  H  240  1  0.11318400  0.43915600  0.58810800  1
  H  241  1  0.14726100  0.38136400  0.64471000  1
  H  242  1  0.20667300  0.41587900  0.62458800  1
  H  243  1  0.28763400  0.46727700  0.62431800  1
  H  244  1  0.23351800  0.52677900  0.61666300  1
  H  245  1  0.26521100  0.56113900  0.66107900  1
  H  246  1  0.31893700  0.50166000  0.66871700  1
  H  253  1  0.81063300  0.41847600  0.93192400  1
  H  254  1  0.81028000  0.45796100  0.97055400  1
  H  261  1  0.73262700  0.37598000  0.87564200  1
  H  262  1  0.73432300  0.33969300  0.83429600  1
  H  263  1  0.78385300  0.29914800  0.89342500  1
  H  264  1  0.69771100  0.39328700  0.97892500  1
  H  268  1  0.76481300  0.32912300  0.96446800  1
  H  269  1  0.80897100  0.35970600  0.95192900  1
  H  270  1  0.77383500  0.28325800  0.95029800  1
  H  272  1  0.68890000  0.32137400  0.92619300  1
  H  273  1  0.67311100  0.32777800  0.96205700  1
  H  274  1  0.64036200  0.32976900  0.91998800  1
  H  281  1  0.60890600  0.19015900  0.59856600  1
  H  282  1  0.64874600  0.19052400  0.63719800  1
  H  289  1  0.64439800  0.26813400  0.54224600  1
  H  290  1  0.60639900  0.26644400  0.50091500  1
  H  291  1  0.51635800  0.21696700  0.56008700  1
  H  292  1  0.69666800  0.30310100  0.64551600  1
  H  296  1  0.56541100  0.23601700  0.63110700  1
  H  297  1  0.55181700  0.19185100  0.61858100  1
  H  298  1  0.51052400  0.22700600  0.61695900  1
  H  300  1  0.63356300  0.31189800  0.59278000  1
  H  301  1  0.65576800  0.32770300  0.62863800  1
  H  302  1  0.69049800  0.36042500  0.58655400  1
  H  309  1  0.58232000  0.39193700  0.26524600  1
  H  310  1  0.54284300  0.35209100  0.30387400  1
  H  317  1  0.62482200  0.35645100  0.20894500  1
  H  318  1  0.66111800  0.39444800  0.16760700  1
  H  319  1  0.70166000  0.48450100  0.22676500  1
  H  320  1  0.60752500  0.30420400  0.31222500  1
  H  324  1  0.67167200  0.43546000  0.29779200  1
  H  325  1  0.64109100  0.44903900  0.28526100  1
  H  326  1  0.71753900  0.49035200  0.28363500  1
  H  328  1  0.67943000  0.36731700  0.25949100  1
  H  329  1  0.67303000  0.34512100  0.29535500  1
  H  330  1  0.67104000  0.31038800  0.25328100  1
  H  337  1  0.19058800  0.58189800  0.43189000  1
  H  338  1  0.19095400  0.54242100  0.47052000  1
  H  345  1  0.26858700  0.62441400  0.37559800  1
  H  346  1  0.26689000  0.66071400  0.33426300  1
  H  347  1  0.21735400  0.70123600  0.39340900  1
  H  348  1  0.30352300  0.60710800  0.47887500  1
  H  352  1  0.23640000  0.67124800  0.46444300  1
  H  353  1  0.19224400  0.64066200  0.45190500  1
  H  354  1  0.22736600  0.71711000  0.45028300  1
  H  356  1  0.31231300  0.67901600  0.42614800  1
  H  357  1  0.32810800  0.67261300  0.46200800  1
  H  358  1  0.36085600  0.67063100  0.41993400  1
  H  365  1  0.39237200  0.81022700  0.09856500  1
  H  366  1  0.35253800  0.80987500  0.13719800  1
  H  373  1  0.35687300  0.73221800  0.04229000  1
  H  374  1  0.39486100  0.73391800  0.00094500  1
  H  375  1  0.48493300  0.78345800  0.06008000  1
  H  376  1  0.30465600  0.69730900  0.14557900  1
  H  380  1  0.43591400  0.76441600  0.13111900  1
  H  381  1  0.44948200  0.80857100  0.11858100  1
  H  382  1  0.49080100  0.77344200  0.11695200  1
  H  384  1  0.36775600  0.68849900  0.09284500  1
  H  385  1  0.34557200  0.67271500  0.12871400  1
  H  386  1  0.31082400  0.63995300  0.08665200  1
  H  393  1  0.41891400  0.60847500  0.76522100  1
  H  394  1  0.45839800  0.64830800  0.80385200  1
  H  401  1  0.37641600  0.64397600  0.70893400  1
  H  402  1  0.34011700  0.60598400  0.66759600  1
  H  403  1  0.29957200  0.51592600  0.72674500  1
  H  404  1  0.39373400  0.69621300  0.81221900  1
  H  408  1  0.32956100  0.56496000  0.79777800  1
  H  409  1  0.36013900  0.55137800  0.78524300  1
  H  410  1  0.28369000  0.51007100  0.78361800  1
  H  412  1  0.32182100  0.63312000  0.75948700  1
  H  413  1  0.32822800  0.65531100  0.79535100  1
  H  414  1  0.33021900  0.69005400  0.75328400  1
  H  421  1  0.67254200  0.00311600  0.77691500  1
  H  422  1  0.69994700  0.06226800  0.75506900  1
  H  429  1  0.60194600  0.97049500  0.81476200  1
  H  430  1  0.56923300  0.91052400  0.83345500  1
  H  431  1  0.66219500  0.92331600  0.87821400  1
  H  432  1  0.69969800  0.10520800  0.84320400  1
  H  436  1  0.71670700  0.01590800  0.86920800  1
  H  437  1  0.72327500  0.99665500  0.83535400  1
  H  438  1  0.71863700  0.97262500  0.89776800  1
  H  440  1  0.65561000  0.01813900  0.88522200  1
  H  441  1  0.69191400  0.06230900  0.89006500  1
  H  442  1  0.63704900  0.05639200  0.90366900  1
  H  449  1  0.33157400  0.32828100  0.44352100  1
  H  450  1  0.36332200  0.30087300  0.42168200  1
  H  457  1  0.36955000  0.39889400  0.48137300  1
  H  458  1  0.34229700  0.43160200  0.50009300  1
  H  459  1  0.26214500  0.33863200  0.54485300  1
  H  460  1  0.40653500  0.30116400  0.50981600  1
  H  464  1  0.30022700  0.28412800  0.53581500  1
  H  465  1  0.27439100  0.27755200  0.50196900  1
  H  466  1  0.25502200  0.28219100  0.56439100  1
  H  468  1  0.36354200  0.34524400  0.55182500  1
  H  469  1  0.37143000  0.30895400  0.55666900  1
  H  470  1  0.42036400  0.36383000  0.57027000  1
  H  477  1  0.99774000  0.66924200  0.11022700  1
  H  478  1  0.93859000  0.63750100  0.08837800  1
  H  485  1  0.03036100  0.63126000  0.14807200  1
  H  486  1  0.09033100  0.65851700  0.16676900  1
  H  487  1  0.07753400  0.73867900  0.21153600  1
  H  488  1  0.89564300  0.59429300  0.17650800  1
  H  492  1  0.98494200  0.70059800  0.20252600  1
  H  493  1  0.00419700  0.72642600  0.16867500  1
  H  494  1  0.02822100  0.74580400  0.23109200  1
  H  496  1  0.98270900  0.63726600  0.21853100  1
  H  497  1  0.93853900  0.62940000  0.22337300  1
  H  498  1  0.94445400  0.58044900  0.23697100  1
  H  505  1  0.32870100  0.99731800  0.27688000  1
  H  506  1  0.30129800  0.93816500  0.25503800  1
  H  513  1  0.39930500  0.02994900  0.31473900  1
  H  514  1  0.43201500  0.08991200  0.33344900  1
  H  515  1  0.33904100  0.07710500  0.37819600  1
  H  516  1  0.30156500  0.89523500  0.34317500  1
  H  520  1  0.28453500  0.98451900  0.36917100  1
  H  521  1  0.27796400  0.00377500  0.33532000  1
  H  522  1  0.28259900  0.02779600  0.39773600  1
  H  524  1  0.34563700  0.98230700  0.38518800  1
  H  525  1  0.30934600  0.93813100  0.39002800  1
  H  526  1  0.36422000  0.94407000  0.40363800  1
  H  533  1  0.66966200  0.67214800  0.94356800  1
  H  534  1  0.63791100  0.69955100  0.92172500  1
  H  541  1  0.63169000  0.60154800  0.98141100  1
  H  542  1  0.65894300  0.56883200  0.00011000  1
  H  543  1  0.73910900  0.66179300  0.04487400  1
  H  544  1  0.59471700  0.69928600  0.00986200  1
  H  548  1  0.70103200  0.71630500  0.03586100  1
  H  549  1  0.72685600  0.72287600  0.00200800  1
  H  550  1  0.74624200  0.71823700  0.06442300  1
  H  552  1  0.63770700  0.65520400  0.05187600  1
  H  553  1  0.62983400  0.69150300  0.05672200  1
  H  554  1  0.58089000  0.63663500  0.07032300  1
  H  561  1  0.00351800  0.33118800  0.61019500  1
  H  562  1  0.06267400  0.36294100  0.58836000  1
  H  569  1  0.97087700  0.36915200  0.64805600  1
  H  570  1  0.91091200  0.34189800  0.66676700  1
  H  571  1  0.92371400  0.26172400  0.71150800  1
  H  572  1  0.10558500  0.40612400  0.67650400  1
  H  576  1  0.01630000  0.29980500  0.70248400  1
  H  577  1  0.99704900  0.27398200  0.66863100  1
  H  578  1  0.97302500  0.25458900  0.73104600  1
  H  580  1  0.01850800  0.36312000  0.71850600  1
  H  581  1  0.06268300  0.37100500  0.72335200  1
  H  582  1  0.05674100  0.41993700  0.73696200  1
  C  1  1  0.76066100  0.29519700  0.83543100  1
  C  2  1  0.72894200  0.26977800  0.82006000  1
  C  3  1  0.73070000  0.25111400  0.79381600  1
  C  4  1  0.76425700  0.25873500  0.78098400  1
  C  5  1  0.79575600  0.28244200  0.79784700  1
  C  6  1  0.79402800  0.30050400  0.82457500  1
  C  8  1  0.74786400  0.19534300  0.76017600  1
  C  9  1  0.76655600  0.18692200  0.78287400  1
  C  10  1  0.75194200  0.15189400  0.79492600  1
  C  11  1  0.71823900  0.12406100  0.78447600  1
  C  12  1  0.69931000  0.13216600  0.76201500  1
  C  13  1  0.71364300  0.16737100  0.75043400  1
  C  14  1  0.74204800  0.24253800  0.71920900  1
  C  15  1  0.80621000  0.25437800  0.73339000  1
  C  16  1  0.81944300  0.23193100  0.72276700  1
  C  17  1  0.85350700  0.24653400  0.70867000  1
  C  18  1  0.87600000  0.28415500  0.70474400  1
  C  19  1  0.86211500  0.30638300  0.71450700  1
  C  20  1  0.82760400  0.29177200  0.72765600  1
  C  21  1  0.72836100  0.26647600  0.72047000  1
  C  22  1  0.70742500  0.26822900  0.69607900  1
  C  23  1  0.70019800  0.24699000  0.66892200  1
  C  24  1  0.71604300  0.22500300  0.66666667  1
  C  25  1  0.73680300  0.22307200  0.69115500  1
  C  42  1  0.53557100  0.24015000  0.50209000  1
  C  43  1  0.54187700  0.27187300  0.48672100  1
  C  44  1  0.52142000  0.27012900  0.46050700  1
  C  45  1  0.49549900  0.23657500  0.44766000  1
  C  46  1  0.48770400  0.20507200  0.46451700  1
  C  47  1  0.50748200  0.20679100  0.49125000  1
  C  49  1  0.44852100  0.25298100  0.42683100  1
  C  50  1  0.42139600  0.23429400  0.44952100  1
  C  51  1  0.40097600  0.24890700  0.46155800  1
  C  52  1  0.40683800  0.28260300  0.45109200  1
  C  53  1  0.43387800  0.30152600  0.42863500  1
  C  54  1  0.45475800  0.28719200  0.41707300  1
  C  55  1  0.50154300  0.25879100  0.38588300  1
  C  56  1  0.44920900  0.19463400  0.40004900  1
  C  57  1  0.41352300  0.18138600  0.38944100  1
  C  58  1  0.39405300  0.14731300  0.37536200  1
  C  59  1  0.40918600  0.12482300  0.37142900  1
  C  60  1  0.44529700  0.13870900  0.38119500  1
  C  61  1  0.46520000  0.17322900  0.39432700  1
  C  62  1  0.53916900  0.27249100  0.38715700  1
  C  63  1  0.56186700  0.29343700  0.36277300  1
  C  64  1  0.54786300  0.30065200  0.33560700  1
  C  65  1  0.51003100  0.28479700  0.33333333  1
  C  66  1  0.48733100  0.26403300  0.35782200  1
  C  83  1  0.70562800  0.46528300  0.16877000  1
  C  84  1  0.73104800  0.45897700  0.15340600  1
  C  85  1  0.74976100  0.47943100  0.12719000  1
  C  86  1  0.74211800  0.50534100  0.11433300  1
  C  87  1  0.71840100  0.51313200  0.13118400  1
  C  88  1  0.70036300  0.49337400  0.15793100  1
  C  90  1  0.80550000  0.55231900  0.09350500  1
  C  91  1  0.81393200  0.57944300  0.11619500  1
  C  92  1  0.84896200  0.59986200  0.12823900  1
  C  93  1  0.87679400  0.59399200  0.11778400  1
  C  94  1  0.86868700  0.56696000  0.09532200  1
  C  95  1  0.83347800  0.54608500  0.08374900  1
  C  96  1  0.75829200  0.49928500  0.05256100  1
  C  97  1  0.74646500  0.55162200  0.06671400  1
  C  98  1  0.76890300  0.58731000  0.05610700  1
  C  99  1  0.75429900  0.60678400  0.04203400  1
  C  100  1  0.71667900  0.59164700  0.03809300  1
  C  101  1  0.69445400  0.55553200  0.04784900  1
  C  102  1  0.70906900  0.53563100  0.06098600  1
  C  103  1  0.73437200  0.46165800  0.05384700  1
  C  104  1  0.73261400  0.43895300  0.02946500  1
  C  105  1  0.75383200  0.45295000  0.00229900  1
  C  106  1  0.77580600  0.49078100  0.00002200  1
  C  107  1  0.77774500  0.51348700  0.02449700  1
  C  124  1  0.24056000  0.70521500  0.33541800  1
  C  125  1  0.27228600  0.73064600  0.32006100  1
  C  126  1  0.27054500  0.74935400  0.29384300  1
  C  127  1  0.23699300  0.74169800  0.28097600  1
  C  128  1  0.20548400  0.71798600  0.29782700  1
  C  129  1  0.20720100  0.69992900  0.32456500  1
  C  131  1  0.25340100  0.80509200  0.26014800  1
  C  132  1  0.23470800  0.81351400  0.28284500  1
  C  133  1  0.24932300  0.84854000  0.29489900  1
  C  134  1  0.28302400  0.87637700  0.28444600  1
  C  135  1  0.30196700  0.86826400  0.26201000  1
  C  136  1  0.28762800  0.83306400  0.25041500  1
  C  137  1  0.25924000  0.75788900  0.21921400  1
  C  138  1  0.19506800  0.74605100  0.23335500  1
  C  139  1  0.18181400  0.76848400  0.22275100  1
  C  140  1  0.14774000  0.75387700  0.20867000  1
  C  141  1  0.12525400  0.71625700  0.20474400  1
  C  142  1  0.13915200  0.69403700  0.21449500  1
  C  143  1  0.17368000  0.70865700  0.22761100  1
  C  144  1  0.27293700  0.73396100  0.22049500  1
  C  145  1  0.29390900  0.73222600  0.19612500  1
  C  146  1  0.30111100  0.75342900  0.16895000  1
  C  147  1  0.28524800  0.77539800  0.16667300  1
  C  148  1  0.26448600  0.77734000  0.19115000  1
  C  165  1  0.46569700  0.76026100  0.00208700  1
  C  166  1  0.45939900  0.72854000  0.98672100  1
  C  167  1  0.47984200  0.73029000  0.96049500  1
  C  168  1  0.50574600  0.76384500  0.94763800  1
  C  169  1  0.51354000  0.79534700  0.96449600  1
  C  170  1  0.49375600  0.79362700  0.99122600  1
  C  172  1  0.55273900  0.74744400  0.92682000  1
  C  173  1  0.57985300  0.76614100  0.94951900  1
  C  174  1  0.60026100  0.75152600  0.96158200  1
  C  175  1  0.59439700  0.71782400  0.95113500  1
  C  176  1  0.56734900  0.69888100  0.92868900  1
  C  177  1  0.54648000  0.71321300  0.91710200  1
  C  178  1  0.49970500  0.74160300  0.88587400  1
  C  179  1  0.55202300  0.80577800  0.90002200  1
  C  180  1  0.58771500  0.81903200  0.88942600  1
  C  181  1  0.60718500  0.85311000  0.87535400  1
  C  182  1  0.59204900  0.87559700  0.87142700  1
  C  183  1  0.55593700  0.86170500  0.88118600  1
  C  184  1  0.53602100  0.82716900  0.89428800  1
  C  185  1  0.46208100  0.72791300  0.88714700  1
  C  186  1  0.43938000  0.70694400  0.86277400  1
  C  187  1  0.45338500  0.69974500  0.83559900  1
  C  188  1  0.49121700  0.71560000  0.83333200  1
  C  189  1  0.51391700  0.73635900  0.85781500  1
  C  206  1  0.29560500  0.53515000  0.66875200  1
  C  207  1  0.27019200  0.54145700  0.65337800  1
  C  208  1  0.25149200  0.52100700  0.62715800  1
  C  209  1  0.25913400  0.49509400  0.61431000  1
  C  210  1  0.28284200  0.48730000  0.63116800  1
  C  211  1  0.30089200  0.50707400  0.65790500  1
  C  213  1  0.19574400  0.44810600  0.59348200  1
  C  214  1  0.18731700  0.42099400  0.61618600  1
  C  215  1  0.15229200  0.40058900  0.62823900  1
  C  216  1  0.12445500  0.40645000  0.61777900  1
  C  217  1  0.13257100  0.43349700  0.59532900  1
  C  218  1  0.16777700  0.45436900  0.58375400  1
  C  219  1  0.24295200  0.50113100  0.55253800  1
  C  220  1  0.25479100  0.44880600  0.56670000  1
  C  221  1  0.23235000  0.41310900  0.55611900  1
  C  222  1  0.24695000  0.39364200  0.54202900  1
  C  223  1  0.28457000  0.40877600  0.53808700  1
  C  224  1  0.30679900  0.44488800  0.54785000  1
  C  225  1  0.29218600  0.46479600  0.56098000  1
  C  226  1  0.26688300  0.53875600  0.55381000  1
  C  227  1  0.26864100  0.56145300  0.52942100  1
  C  228  1  0.24742000  0.54744700  0.50225500  1
  C  229  1  0.22543900  0.50961400  0.49999300  1
  C  230  1  0.22350000  0.48691700  0.52447700  1
  C  247  1  0.75376600  0.42955500  0.97849600  1
  C  248  1  0.72163000  0.39833400  0.96927700  1
  C  249  1  0.72132600  0.37369800  0.94714300  1
  C  250  1  0.75449000  0.38098700  0.93332600  1
  C  251  1  0.78655600  0.41251200  0.94184800  1
  C  252  1  0.78623800  0.43613900  0.96428800  1
  C  255  1  0.75671200  0.35879300  0.90982800  1
  C  256  1  0.74329100  0.35972000  0.87997500  1
  C  257  1  0.74408900  0.33826500  0.85569800  1
  C  258  1  0.75908200  0.31594500  0.86046400  1
  C  259  1  0.77297200  0.31536400  0.89016500  1
  C  260  1  0.77153300  0.33602600  0.91533400  1
  C  265  1  0.68601900  0.34105500  0.94017100  1
  C  266  1  0.78517500  0.33380300  0.94687600  1
  C  275  1  0.67686500  0.24704300  0.64511600  1
  C  276  1  0.67779400  0.27917800  0.63587700  1
  C  277  1  0.65345800  0.27947600  0.61374100  1
  C  278  1  0.62757000  0.24630500  0.59994100  1
  C  279  1  0.62703100  0.21424200  0.60847300  1
  C  280  1  0.65098500  0.21456900  0.63090900  1
  C  283  1  0.60314400  0.24407500  0.57645100  1
  C  284  1  0.61747700  0.25747900  0.54659100  1
  C  285  1  0.59522000  0.25671500  0.52233100  1
  C  286  1  0.55791000  0.24171700  0.52710800  1
  C  287  1  0.54345100  0.22782800  0.55681300  1
  C  288  1  0.56556500  0.22927300  0.58197300  1
  C  293  1  0.65612900  0.31478200  0.60675600  1
  C  294  1  0.54971300  0.21564900  0.61352500  1
  C  303  1  0.57125000  0.32398500  0.31180300  1
  C  304  1  0.60247300  0.32307300  0.30258100  1
  C  305  1  0.62710700  0.34741100  0.28044700  1
  C  306  1  0.61981100  0.37328600  0.26663500  1
  C  307  1  0.58828700  0.37382200  0.27516300  1
  C  308  1  0.56466400  0.34987300  0.29760400  1
  C  311  1  0.64200500  0.39771100  0.24314100  1
  C  312  1  0.64108200  0.38337500  0.21328400  1
  C  313  1  0.66254100  0.40563600  0.18901400  1
  C  314  1  0.68486000  0.44294500  0.19379000  1
  C  315  1  0.68543900  0.45740600  0.22349600  1
  C  316  1  0.66477200  0.43529400  0.24865800  1
  C  321  1  0.65975000  0.34475200  0.27346900  1
  C  322  1  0.66699500  0.45114900  0.28020500  1
  C  331  1  0.24746900  0.57083600  0.47845600  1
  C  332  1  0.27960200  0.60205400  0.46922900  1
  C  333  1  0.27989800  0.62668800  0.44709600  1
  C  334  1  0.24672800  0.61939500  0.43328500  1
  C  335  1  0.21466800  0.58786200  0.44180600  1
  C  336  1  0.21499800  0.56423400  0.46424000  1
  C  339  1  0.24449900  0.64159000  0.40979100  1
  C  340  1  0.25792000  0.64067100  0.37993900  1
  C  341  1  0.25714800  0.66215400  0.35567300  1
  C  342  1  0.24213100  0.68445300  0.36044300  1
  C  343  1  0.22822700  0.68501500  0.39014200  1
  C  344  1  0.22967600  0.66435200  0.41530700  1
  C  349  1  0.31520000  0.65933300  0.44012200  1
  C  350  1  0.21603400  0.66656700  0.44685300  1
  C  359  1  0.32443800  0.75336200  0.14514600  1
  C  360  1  0.32352200  0.72122700  0.13593000  1
  C  361  1  0.34785400  0.72092200  0.11379500  1
  C  362  1  0.37372800  0.75408700  0.09997300  1
  C  363  1  0.37426200  0.78615000  0.10849100  1
  C  364  1  0.35032000  0.78583300  0.13093200  1
  C  367  1  0.39814400  0.75631000  0.07647600  1
  C  368  1  0.38380000  0.74288600  0.04662400  1
  C  369  1  0.40605400  0.74368800  0.02234900  1
  C  370  1  0.44336700  0.75868600  0.02711600  1
  C  371  1  0.45783500  0.77257600  0.05681800  1
  C  372  1  0.43573100  0.77113300  0.08198500  1
  C  377  1  0.34519500  0.68561700  0.10682500  1
  C  378  1  0.45159500  0.78477700  0.11352900  1
  C  387  1  0.42999900  0.67642200  0.81179200  1
  C  388  1  0.39878100  0.67734500  0.80257000  1
  C  389  1  0.37414400  0.65301200  0.78043600  1
  C  390  1  0.38142900  0.62713300  0.76662100  1
  C  391  1  0.41295600  0.62659500  0.77513900  1
  C  392  1  0.43659100  0.65054700  0.79757300  1
  C  395  1  0.35922900  0.60271200  0.74312700  1
  C  396  1  0.36015200  0.61705200  0.71327200  1
  C  397  1  0.33866800  0.59480000  0.68900900  1
  C  398  1  0.31636600  0.55748600  0.69377700  1
  C  399  1  0.31579400  0.54301900  0.72347800  1
  C  400  1  0.33645800  0.56512900  0.74864300  1
  C  405  1  0.34150600  0.65568200  0.77346400  1
  C  406  1  0.33423500  0.54927000  0.78018900  1
  C  415  1  0.70276200  0.08906300  0.79743400  1
  C  416  1  0.69434800  0.08352100  0.82949200  1
  C  417  1  0.67719700  0.04866100  0.84282500  1
  C  418  1  0.66968700  0.01875100  0.82338100  1
  C  419  1  0.67821500  0.02436400  0.79130000  1
  C  420  1  0.69422600  0.05905300  0.77840400  1
  C  423  1  0.65221700  0.98274800  0.83456700  1
  C  424  1  0.61523700  0.96083700  0.82788000  1
  C  425  1  0.59584300  0.92553700  0.83930600  1
  C  426  1  0.61242800  0.91105000  0.85833000  1
  C  427  1  0.64975500  0.93314400  0.86434600  1
  C  428  1  0.67025000  0.96865200  0.85255600  1
  C  433  1  0.66749800  0.04565500  0.87651300  1
  C  434  1  0.70999600  0.99040300  0.85804400  1
  C  443  1  0.38732300  0.29808900  0.46404200  1
  C  444  1  0.39021200  0.30652500  0.49609700  1
  C  445  1  0.37248800  0.32366200  0.50942900  1
  C  446  1  0.35007500  0.33115600  0.48998500  1
  C  447  1  0.34715800  0.32261900  0.45790700  1
  C  448  1  0.36584400  0.30661600  0.44501000  1
  C  451  1  0.33153000  0.34861400  0.50116900  1
  C  452  1  0.34659900  0.38559700  0.49448900  1
  C  453  1  0.33070100  0.40499000  0.50593400  1
  C  454  1  0.29963500  0.38840200  0.52496600  1
  C  455  1  0.28439900  0.35106900  0.53096800  1
  C  456  1  0.29941200  0.33058000  0.51916900  1
  C  461  1  0.37918000  0.33336600  0.54311700  1
  C  462  1  0.28142500  0.29083300  0.52465900  1
  C  471  1  0.91179300  0.61351100  0.13074100  1
  C  472  1  0.91733200  0.61063400  0.16279800  1
  C  473  1  0.95219000  0.62834000  0.17613300  1
  C  474  1  0.98210200  0.65074300  0.15669300  1
  C  475  1  0.97648900  0.65366100  0.12461100  1
  C  476  1  0.94180200  0.63498800  0.11171400  1
  C  479  1  0.01810500  0.66927600  0.16788000  1
  C  480  1  0.04001700  0.65420600  0.16119300  1
  C  481  1  0.07531600  0.67011100  0.17261900  1
  C  482  1  0.08980200  0.70118200  0.19164700  1
  C  483  1  0.06770600  0.71641200  0.19766500  1
  C  484  1  0.03220000  0.70140100  0.18587500  1
  C  489  1  0.95519200  0.62163900  0.20982100  1
  C  490  1  0.01044800  0.71939500  0.19136500  1
  C  499  1  0.29850200  0.91137500  0.29740100  1
  C  500  1  0.30693300  0.91692400  0.32945600  1
  C  501  1  0.32406500  0.95178100  0.34279100  1
  C  502  1  0.33156600  0.98169000  0.32334600  1
  C  503  1  0.32303400  0.97607000  0.29126600  1
  C  504  1  0.30703400  0.94138400  0.27836900  1
  C  507  1  0.34902600  0.01769400  0.33452800  1
  C  508  1  0.38600900  0.03960500  0.32785000  1
  C  509  1  0.40540100  0.07489800  0.33928800  1
  C  510  1  0.38881200  0.08938300  0.35831100  1
  C  511  1  0.35147900  0.06728600  0.36431800  1
  C  512  1  0.33099000  0.03178200  0.35252100  1
  C  517  1  0.33376200  0.95479300  0.37647900  1
  C  518  1  0.29124500  0.01002600  0.35801000  1
  C  527  1  0.61392500  0.70235400  0.96409100  1
  C  528  1  0.61105700  0.69394100  0.99614800  1
  C  529  1  0.62876700  0.67679100  0.00948000  1
  C  530  1  0.65117100  0.66928700  0.99003400  1
  C  531  1  0.65408400  0.67781600  0.95795300  1
  C  532  1  0.63540600  0.69382800  0.94505900  1
  C  535  1  0.66970700  0.65181800  0.00121800  1
  C  536  1  0.65463700  0.61483800  0.99453000  1
  C  537  1  0.67053900  0.59544300  0.00596000  1
  C  538  1  0.70160900  0.61202500  0.02498700  1
  C  539  1  0.71684200  0.64935400  0.03100300  1
  C  540  1  0.70183400  0.66985100  0.01921100  1
  C  545  1  0.62207500  0.66708800  0.04316800  1
  C  546  1  0.71982700  0.70959500  0.02469800  1
  C  555  1  0.08945600  0.38692400  0.63072800  1
  C  556  1  0.08390300  0.38980500  0.66278200  1
  C  557  1  0.04904100  0.37207700  0.67611200  1
  C  558  1  0.01913800  0.34967200  0.65666300  1
  C  559  1  0.02476000  0.34676200  0.62458300  1
  C  560  1  0.05945200  0.36545400  0.61169300  1
  C  563  1  0.98312900  0.33112400  0.66784300  1
  C  564  1  0.96121900  0.34619600  0.66116500  1
  C  565  1  0.92592500  0.33029600  0.67260300  1
  C  566  1  0.91143900  0.29922100  0.69162600  1
  C  567  1  0.93353400  0.28398400  0.69762800  1
  C  568  1  0.96903900  0.29899700  0.68583300  1
  C  573  1  0.04602500  0.37876000  0.70980000  1
  C  574  1  0.99079600  0.28100800  0.69132100  1
  O  267  1  0.79569100  0.30715900  0.95095200  1
  O  271  1  0.66370300  0.35160100  0.92379600  1
  O  295  1  0.51256000  0.20514600  0.61761600  1
  O  299  1  0.68898500  0.33708300  0.59037100  1
  O  323  1  0.69363900  0.48830800  0.28429200  1
  O  327  1  0.64920800  0.31189600  0.25709100  1
  O  351  1  0.20551400  0.69320700  0.45093600  1
  O  355  1  0.33751800  0.64879800  0.42374400  1
  O  379  1  0.48875400  0.79529700  0.11760700  1
  O  383  1  0.31233300  0.66329400  0.09045700  1
  O  407  1  0.30759000  0.51211300  0.78427300  1
  O  411  1  0.35204900  0.68854100  0.75709100  1
  O  435  1  0.72600200  0.97376800  0.87587100  1
  O  439  1  0.64219500  0.05773500  0.88120000  1
  O  463  1  0.24879100  0.27482400  0.54249500  1
  O  467  1  0.41656100  0.35868100  0.54780100  1
  O  491  1  0.02708000  0.75203200  0.20919700  1
  O  495  1  0.94311300  0.58425600  0.21450200  1
  O  519  1  0.27523200  0.02665400  0.37583800  1
  O  523  1  0.35907600  0.94272700  0.38116900  1
  O  547  1  0.75246800  0.72560100  0.04252700  1
  O  551  1  0.58469300  0.64178300  0.04785400  1
  O  575  1  0.97416600  0.24836700  0.70914800  1
  O  579  1  0.05809000  0.41614000  0.71449300  1
