# generated using pymatgen
data_H9C20(N2O3)3
_symmetry_space_group_name_H-M   'P 1'
_cell_length_a   35.07570000
_cell_length_b   41.79890000
_cell_length_c   41.79890000
_cell_angle_alpha   60.00000000
_cell_angle_beta   90.00000000
_cell_angle_gamma   89.90920000
_symmetry_Int_Tables_number   1
_chemical_formula_structural   H9C20(N2O3)3
_chemical_formula_sum   'H108 C240 N72 O108'
_cell_volume   53072.06146231
_cell_formula_units_Z   12
loop_
 _symmetry_equiv_pos_site_id
 _symmetry_equiv_pos_as_xyz
  1  'x, y, z'
loop_
 _atom_site_type_symbol
 _atom_site_label
 _atom_site_symmetry_multiplicity
 _atom_site_fract_x
 _atom_site_fract_y
 _atom_site_fract_z
 _atom_site_occupancy
  H  7  1  0.95117400  0.03843400  0.54855100  1
  H  16  1  0.04982900  0.96488400  0.57596500  1
  H  17  1  0.87391000  0.92906200  0.59066100  1
  H  18  1  0.12839900  0.07414200  0.51749300  1
  H  19  1  0.00416400  0.93800800  0.62378600  1
  H  20  1  0.00219400  0.06029100  0.57018500  1
  H  31  1  0.61715900  0.55004700  0.41492600  1
  H  40  1  0.71580800  0.57722600  0.46105600  1
  H  41  1  0.53989500  0.59217900  0.48234300  1
  H  42  1  0.79447000  0.51873700  0.41014600  1
  H  43  1  0.67010500  0.62510400  0.44018900  1
  H  44  1  0.66816600  0.57159500  0.37142100  1
  H  55  1  0.28345800  0.41644900  0.03693100  1
  H  64  1  0.38206500  0.46260700  0.96354400  1
  H  65  1  0.20603700  0.48365500  0.92743300  1
  H  66  1  0.46072300  0.41177300  0.07298100  1
  H  67  1  0.33647500  0.44172900  0.93659200  1
  H  68  1  0.33462100  0.37306700  0.05891100  1
  H  79  1  0.45111500  0.96496600  0.45161700  1
  H  88  1  0.54957100  0.03842500  0.42436500  1
  H  89  1  0.37349200  0.07436300  0.40951700  1
  H  90  1  0.62841800  0.92909600  0.48290900  1
  H  91  1  0.50383300  0.06538800  0.37653800  1
  H  92  1  0.50221300  0.94310100  0.43002900  1
  H  103  1  0.11730300  0.45304300  0.58542900  1
  H  112  1  0.21595200  0.42583500  0.53921500  1
  H  113  1  0.04003300  0.41089200  0.51813800  1
  H  114  1  0.29446000  0.48443700  0.58995700  1
  H  115  1  0.17040800  0.37795300  0.56013700  1
  H  116  1  0.16842100  0.43148800  0.62888600  1
  H  127  1  0.78343500  0.58712000  0.96307900  1
  H  136  1  0.88193600  0.54076800  0.03666100  1
  H  137  1  0.70609000  0.51975600  0.07243400  1
  H  138  1  0.96078400  0.59145500  0.92757300  1
  H  139  1  0.83627100  0.56181600  0.06354000  1
  H  140  1  0.83451200  0.63061100  0.94129500  1
  H  151  1  0.19672500  0.98484400  0.57336100  1
  H  158  1  0.30538500  0.99349600  0.42723200  1
  H  159  1  0.35411900  0.90716000  0.52431800  1
  H  160  1  0.14053000  0.91400100  0.54428300  1
  H  175  1  0.11141000  0.93696000  0.58735700  1
  H  176  1  0.38803200  0.93857400  0.46043500  1
  H  183  1  0.86274300  0.57457600  0.44353800  1
  H  190  1  0.97168900  0.42862700  0.58125400  1
  H  191  1  0.02003600  0.52580900  0.57030700  1
  H  192  1  0.80646800  0.54577500  0.54339000  1
  H  207  1  0.77738500  0.58882500  0.47727600  1
  H  208  1  0.05413600  0.46192900  0.60290700  1
  H  215  1  0.52899300  0.44510900  0.98371000  1
  H  222  1  0.63780600  0.58285100  0.99161200  1
  H  223  1  0.68617600  0.57155200  0.90551700  1
  H  224  1  0.47262600  0.54503800  0.91260400  1
  H  239  1  0.44358300  0.47902900  0.93570800  1
  H  240  1  0.72027300  0.60419100  0.93661700  1
  H  247  1  0.69649900  0.01831300  0.42698300  1
  H  254  1  0.80558700  0.00988200  0.57284900  1
  H  255  1  0.85381700  0.09616100  0.47560800  1
  H  256  1  0.64022400  0.08922400  0.45608500  1
  H  271  1  0.61106700  0.06627300  0.41305300  1
  H  272  1  0.88799500  0.06488400  0.53937800  1
  H  279  1  0.36284900  0.42848600  0.55661700  1
  H  286  1  0.47150000  0.57452400  0.41926300  1
  H  287  1  0.52006100  0.47740200  0.42992600  1
  H  288  1  0.30654200  0.45769700  0.45663000  1
  H  303  1  0.27751600  0.41455100  0.52265500  1
  H  304  1  0.55399900  0.54123300  0.39746900  1
  H  311  1  0.02886000  0.55798500  0.01690800  1
  H  318  1  0.13781000  0.42057000  0.00820400  1
  H  319  1  0.18623400  0.43114200  0.09469400  1
  H  320  1  0.97261300  0.45807700  0.08759000  1
  H  335  1  0.94346700  0.52415500  0.06465500  1
  H  336  1  0.22032000  0.39873500  0.06323800  1
  H  343  1  0.05378600  0.14906400  0.56930000  1
  H  350  1  0.06117800  0.34341600  0.49623000  1
  H  351  1  0.17396600  0.30329500  0.51779000  1
  H  352  1  0.07505700  0.18752800  0.45664500  1
  H  367  1  0.04384400  0.12616400  0.49775600  1
  H  368  1  0.15439700  0.36748900  0.50758000  1
  H  375  1  0.71986000  0.57068800  0.28351500  1
  H  382  1  0.72702300  0.49796600  0.16193300  1
  H  383  1  0.83987000  0.51908700  0.18046800  1
  H  384  1  0.74130800  0.45797300  0.35753600  1
  H  399  1  0.71029800  0.49900200  0.37801300  1
  H  400  1  0.82020500  0.50901700  0.12645700  1
  H  407  1  0.38584800  0.28498200  0.14774900  1
  H  414  1  0.39429500  0.16374800  0.34212700  1
  H  415  1  0.50685500  0.18241700  0.30170900  1
  H  416  1  0.40711300  0.35921500  0.18614600  1
  H  431  1  0.37508800  0.37917000  0.12486600  1
  H  432  1  0.48768500  0.12842400  0.36596300  1
  H  439  1  0.55409500  0.85426900  0.43107600  1
  H  446  1  0.56094900  0.65990900  0.50409200  1
  H  447  1  0.67385700  0.69930400  0.48285400  1
  H  448  1  0.57539800  0.81566800  0.54377600  1
  H  463  1  0.54446800  0.87719500  0.50270400  1
  H  464  1  0.65408200  0.63524600  0.49300700  1
  H  471  1  0.22004100  0.43256000  0.71667300  1
  H  478  1  0.22716500  0.50558500  0.83801000  1
  H  479  1  0.34001800  0.48408600  0.81966000  1
  H  480  1  0.24130000  0.54520500  0.64253900  1
  H  495  1  0.21029300  0.50415400  0.62214700  1
  H  496  1  0.32036400  0.49432000  0.87358500  1
  H  503  1  0.88711600  0.71823900  0.85259700  1
  H  510  1  0.89490800  0.83973800  0.65827000  1
  H  511  1  0.00761100  0.82092900  0.69850800  1
  H  512  1  0.90852100  0.64416800  0.81396400  1
  H  527  1  0.87802900  0.62349800  0.87540700  1
  H  528  1  0.98820900  0.87497100  0.63433300  1
  C  1  1  0.98365300  0.99134000  0.58493100  1
  C  2  1  0.94973500  0.01106800  0.56815700  1
  C  3  1  0.91383500  0.99348600  0.57653500  1
  C  4  1  0.91177300  0.95497300  0.60086100  1
  C  5  1  0.94513000  0.93445300  0.61762800  1
  C  6  1  0.98046100  0.95295000  0.61024400  1
  C  9  1  0.02007300  0.00928000  0.57539200  1
  C  10  1  0.02476600  0.04614900  0.56766300  1
  C  11  1  0.06026300  0.06419400  0.55645800  1
  C  12  1  0.09232500  0.04496200  0.55424000  1
  C  13  1  0.08875000  0.00787700  0.56280700  1
  C  14  1  0.05258500  0.99085200  0.57229400  1
  C  25  1  0.64961800  0.58632500  0.42567300  1
  C  26  1  0.61570800  0.56963300  0.42271500  1
  C  27  1  0.57980600  0.57806400  0.43195400  1
  C  28  1  0.57773300  0.60235300  0.44619600  1
  C  29  1  0.61108400  0.61903200  0.44995700  1
  C  30  1  0.64641300  0.61161300  0.43879000  1
  C  33  1  0.68604200  0.57673500  0.41723700  1
  C  34  1  0.69074000  0.56902500  0.38807400  1
  C  35  1  0.72625100  0.55777900  0.38119800  1
  C  36  1  0.75832300  0.55550400  0.40262700  1
  C  37  1  0.75474300  0.56406300  0.43115700  1
  C  38  1  0.71856300  0.57357200  0.43874300  1
  C  49  1  0.31596200  0.42721500  0.98989400  1
  C  50  1  0.28202700  0.42421200  0.00956100  1
  C  51  1  0.24610700  0.43336400  0.99191700  1
  C  52  1  0.24403400  0.44758400  0.95339500  1
  C  53  1  0.27740800  0.45139500  0.93293200  1
  C  54  1  0.31276300  0.44030100  0.95149800  1
  C  57  1  0.35239700  0.41883000  0.00790700  1
  C  58  1  0.35715000  0.38971600  0.04480200  1
  C  59  1  0.39266500  0.38286300  0.06290300  1
  C  60  1  0.42468700  0.40426200  0.04370400  1
  C  61  1  0.42105200  0.43276400  0.00660500  1
  C  62  1  0.38486400  0.44032600  0.98952200  1
  C  73  1  0.48347100  0.01205000  0.41531600  1
  C  74  1  0.44960100  0.99233700  0.43202700  1
  C  75  1  0.41364500  0.00993900  0.42361200  1
  C  76  1  0.41147200  0.04846000  0.39932700  1
  C  77  1  0.44477800  0.06897100  0.38262600  1
  C  78  1  0.48017000  0.05045200  0.39003800  1
  C  81  1  0.51994100  0.99407600  0.42488200  1
  C  82  1  0.52473600  0.95720900  0.43259300  1
  C  83  1  0.56027100  0.93911400  0.44384800  1
  C  84  1  0.59227600  0.95829400  0.44612700  1
  C  85  1  0.58860400  0.99538300  0.43756100  1
  C  86  1  0.55239600  0.01245500  0.42803400  1
  C  97  1  0.14983800  0.41673900  0.57467100  1
  C  98  1  0.11589100  0.43344600  0.57765700  1
  C  99  1  0.07999500  0.42501500  0.56846800  1
  C  100  1  0.07796200  0.40071700  0.55424300  1
  C  101  1  0.11135000  0.38402200  0.55045100  1
  C  102  1  0.14667900  0.39144500  0.56156600  1
  C  105  1  0.18625100  0.42633800  0.58305800  1
  C  106  1  0.19096100  0.43406100  0.61220700  1
  C  107  1  0.22643800  0.44533900  0.61902800  1
  C  108  1  0.25846900  0.44763000  0.59755600  1
  C  109  1  0.25488000  0.43905900  0.56903700  1
  C  110  1  0.21872600  0.42950700  0.56151400  1
  C  121  1  0.81583400  0.57635000  0.01019300  1
  C  122  1  0.78195100  0.57933600  0.99044800  1
  C  123  1  0.74603400  0.57010900  0.00803300  1
  C  124  1  0.74392400  0.55588800  0.04655400  1
  C  125  1  0.77724900  0.55211100  0.06708200  1
  C  126  1  0.81259300  0.56324500  0.04858600  1
  C  129  1  0.85228200  0.58470500  0.99227700  1
  C  130  1  0.85705000  0.61388800  0.95543700  1
  C  131  1  0.89258100  0.62066800  0.93742500  1
  C  132  1  0.92459600  0.59911400  0.95665400  1
  C  133  1  0.92094500  0.57056700  0.99371700  1
  C  134  1  0.88474700  0.56308400  0.01071100  1
  C  145  1  0.16356800  0.94994100  0.56122100  1
  C  146  1  0.16490800  0.92661300  0.54588100  1
  C  147  1  0.19885800  0.92232400  0.53013300  1
  C  148  1  0.23216900  0.94129500  0.53054300  1
  C  149  1  0.23163800  0.96380600  0.54709200  1
  C  150  1  0.19728700  0.96767100  0.56245900  1
  C  152  1  0.26506600  0.94158200  0.51061100  1
  C  153  1  0.26804300  0.96880200  0.47270400  1
  C  154  1  0.30295300  0.97290800  0.45422500  1
  C  155  1  0.33496100  0.95091500  0.47291500  1
  C  156  1  0.33103200  0.92300100  0.51018600  1
  C  157  1  0.29641800  0.91820300  0.52943500  1
  C  173  1  0.37050100  0.95892200  0.45654300  1
  C  174  1  0.12913700  0.95751300  0.57194700  1
  C  177  1  0.82954500  0.56257100  0.49054400  1
  C  178  1  0.83086500  0.54732000  0.52919900  1
  C  179  1  0.86482900  0.53159000  0.54925800  1
  C  180  1  0.89817300  0.53193500  0.52990600  1
  C  181  1  0.89766000  0.54839200  0.49085600  1
  C  182  1  0.86329000  0.56373800  0.47160100  1
  C  184  1  0.93110400  0.51203000  0.54958800  1
  C  185  1  0.93421300  0.47410400  0.56035700  1
  C  186  1  0.96916100  0.45563500  0.57478800  1
  C  187  1  0.00107700  0.47436100  0.57806100  1
  C  188  1  0.99701600  0.51165700  0.56861900  1
  C  189  1  0.96236000  0.53089000  0.55411300  1
  C  205  1  0.03666600  0.45799300  0.58647300  1
  C  206  1  0.79511900  0.57330100  0.47223400  1
  C  209  1  0.49574700  0.49215800  0.94869000  1
  C  210  1  0.49703300  0.53080900  0.92525700  1
  C  211  1  0.53097700  0.55081300  0.92089400  1
  C  212  1  0.56434200  0.53141300  0.93989800  1
  C  213  1  0.56386000  0.49236900  0.96252700  1
  C  214  1  0.52950900  0.47317000  0.96646600  1
  C  216  1  0.59726500  0.55104900  0.94006600  1
  C  217  1  0.60036100  0.56190600  0.96715000  1
  C  218  1  0.63529100  0.57631400  0.97112100  1
  C  219  1  0.66721100  0.57948100  0.94913200  1
  C  220  1  0.66316000  0.56994400  0.92135500  1
  C  221  1  0.62851700  0.55546000  0.91668800  1
  C  237  1  0.70278800  0.58789900  0.95701900  1
  C  238  1  0.46133900  0.47390400  0.95626900  1
  C  241  1  0.66329400  0.05324600  0.43914800  1
  C  242  1  0.66462200  0.07659500  0.45446000  1
  C  243  1  0.69860600  0.08089400  0.47013700  1
  C  244  1  0.73196000  0.06191200  0.46967900  1
  C  245  1  0.73143500  0.03937300  0.45316400  1
  C  246  1  0.69704900  0.03549800  0.43786900  1
  C  248  1  0.76491800  0.06165700  0.48952600  1
  C  249  1  0.76807200  0.03447900  0.52743900  1
  C  250  1  0.80303400  0.03043400  0.54584600  1
  C  251  1  0.83492600  0.05243900  0.52707900  1
  C  252  1  0.83082000  0.08030600  0.48979700  1
  C  253  1  0.79614800  0.08504700  0.47062000  1
  C  269  1  0.87052500  0.04450200  0.54340100  1
  C  270  1  0.62885700  0.04570200  0.42845300  1
  C  273  1  0.32963800  0.44069700  0.50953800  1
  C  274  1  0.33093500  0.45606500  0.47086700  1
  C  275  1  0.36487000  0.47179000  0.45086400  1
  C  276  1  0.39821000  0.47132500  0.47028400  1
  C  277  1  0.39771900  0.45475100  0.50934500  1
  C  278  1  0.36337900  0.43941100  0.52854200  1
  C  280  1  0.43110400  0.49121200  0.45067500  1
  C  281  1  0.43412900  0.52910500  0.44002100  1
  C  282  1  0.46903400  0.54753900  0.42565200  1
  C  283  1  0.50099000  0.52881600  0.42232300  1
  C  284  1  0.49701300  0.49155600  0.43165700  1
  C  285  1  0.46240200  0.47235200  0.44610100  1
  C  301  1  0.53653600  0.54514800  0.41393500  1
  C  302  1  0.29522900  0.42997000  0.52780800  1
  C  305  1  0.99567200  0.51095200  0.05172300  1
  C  306  1  0.99700700  0.47228000  0.07502300  1
  C  307  1  0.03098100  0.45222700  0.07934200  1
  C  308  1  0.06432000  0.47159600  0.06043400  1
  C  309  1  0.06379300  0.51065900  0.03795500  1
  C  310  1  0.02941600  0.52990900  0.03405700  1
  C  312  1  0.09725500  0.45194400  0.06016200  1
  C  313  1  0.10034500  0.44131100  0.03290700  1
  C  314  1  0.13529800  0.42693300  0.02882000  1
  C  315  1  0.16723800  0.42358100  0.05086600  1
  C  316  1  0.16319800  0.43288400  0.07881500  1
  C  317  1  0.12853600  0.44733600  0.08359500  1
  C  333  1  0.20282400  0.41522500  0.04288000  1
  C  334  1  0.96123500  0.52927300  0.04411800  1
  C  337  1  0.06294900  0.16278300  0.51377800  1
  C  338  1  0.07391100  0.19188100  0.47867200  1
  C  339  1  0.08479000  0.22682600  0.47332900  1
  C  340  1  0.08432000  0.23276100  0.50387800  1
  C  341  1  0.07255900  0.20416800  0.53917900  1
  C  342  1  0.06189100  0.16960800  0.54362300  1
  C  344  1  0.09682400  0.26682000  0.50011500  1
  C  345  1  0.06960000  0.29409600  0.49501900  1
  C  346  1  0.08122400  0.32442400  0.49877000  1
  C  347  1  0.11919900  0.32776000  0.50796900  1
  C  348  1  0.14631400  0.30143800  0.51096800  1
  C  349  1  0.13552000  0.27073500  0.50747200  1
  C  365  1  0.12948200  0.35466500  0.51633200  1
  C  366  1  0.05474400  0.12815300  0.51872200  1
  C  369  1  0.72912200  0.51513200  0.32524800  1
  C  370  1  0.74010100  0.48002800  0.33117700  1
  C  371  1  0.75090600  0.47471900  0.30151600  1
  C  372  1  0.75034700  0.50530400  0.26505200  1
  C  373  1  0.73857700  0.54060700  0.25842400  1
  C  374  1  0.72797600  0.54501000  0.28859800  1
  C  376  1  0.76279100  0.50157700  0.23469900  1
  C  377  1  0.73552300  0.49662500  0.21250700  1
  C  378  1  0.74709500  0.50040600  0.17838900  1
  C  379  1  0.78506500  0.50948800  0.16583400  1
  C  380  1  0.81222300  0.51234900  0.18916400  1
  C  381  1  0.80147900  0.50882400  0.22339800  1
  C  397  1  0.79531400  0.51786000  0.13054800  1
  C  398  1  0.72097600  0.52002800  0.35499000  1
  C  401  1  0.39498200  0.32678200  0.16146000  1
  C  402  1  0.40603600  0.33282600  0.19052000  1
  C  403  1  0.41711500  0.30323900  0.22544700  1
  C  404  1  0.41673800  0.26675000  0.23139300  1
  C  405  1  0.40487200  0.26001700  0.20283000  1
  C  406  1  0.39401600  0.29011700  0.16828400  1
  C  408  1  0.42945100  0.23647500  0.26542400  1
  C  409  1  0.40239500  0.21427400  0.29277500  1
  C  410  1  0.41422100  0.18021600  0.32308100  1
  C  411  1  0.45223300  0.16772000  0.32632300  1
  C  412  1  0.47918300  0.19106500  0.29992300  1
  C  413  1  0.46818400  0.22524600  0.26924000  1
  C  429  1  0.46270200  0.13246900  0.35320600  1
  C  430  1  0.38659800  0.35642500  0.12684500  1
  C  433  1  0.56329300  0.84050200  0.48661600  1
  C  434  1  0.57422100  0.81133500  0.52173800  1
  C  435  1  0.58499700  0.77632600  0.52709900  1
  C  436  1  0.58446400  0.77039700  0.49654800  1
  C  437  1  0.57275200  0.79906600  0.46122300  1
  C  438  1  0.56218100  0.83368400  0.45676600  1
  C  440  1  0.59685200  0.73626400  0.50033200  1
  C  441  1  0.56953900  0.70916600  0.50534700  1
  C  442  1  0.58105400  0.67876900  0.50161500  1
  C  443  1  0.61901200  0.67519100  0.49252300  1
  C  444  1  0.64621600  0.70133900  0.48960200  1
  C  445  1  0.63552800  0.73210500  0.49307600  1
  C  461  1  0.62920500  0.64823000  0.48418000  1
  C  462  1  0.55513300  0.87516400  0.48168000  1
  C  465  1  0.22920900  0.48807500  0.67488900  1
  C  466  1  0.24013400  0.52317600  0.66891500  1
  C  467  1  0.25094800  0.52851900  0.69854900  1
  C  468  1  0.25044900  0.49797200  0.73503100  1
  C  469  1  0.23872600  0.46267400  0.74170600  1
  C  470  1  0.22812000  0.45823400  0.71155900  1
  C  472  1  0.26290200  0.50172600  0.76536000  1
  C  473  1  0.23564400  0.50680500  0.78749100  1
  C  474  1  0.24723300  0.50305500  0.82159500  1
  C  475  1  0.28521400  0.49388000  0.83419900  1
  C  476  1  0.31236400  0.49089200  0.81092700  1
  C  477  1  0.30160100  0.49438400  0.77670900  1
  C  493  1  0.29547700  0.48553200  0.86947900  1
  C  494  1  0.22105800  0.48313900  0.64517700  1
  C  497  1  0.89632700  0.67646400  0.83881900  1
  C  498  1  0.90736300  0.67052500  0.80967500  1
  C  499  1  0.91828600  0.70015500  0.77475700  1
  C  500  1  0.91781900  0.73661100  0.76889000  1
  C  501  1  0.90599700  0.74326700  0.79752000  1
  C  502  1  0.89526000  0.71312500  0.83203900  1
  C  504  1  0.93038800  0.76692500  0.73487100  1
  C  505  1  0.90322200  0.78917400  0.70757700  1
  C  506  1  0.91491100  0.82324200  0.67727700  1
  C  507  1  0.95289600  0.83569900  0.67398600  1
  C  508  1  0.97995500  0.81231000  0.70033200  1
  C  509  1  0.96909300  0.77812000  0.73100600  1
  C  525  1  0.96324700  0.87094500  0.64709500  1
  C  526  1  0.88811500  0.64670700  0.87343300  1
  N  21  1  0.11956400  0.99138000  0.55950400  1
  N  22  1  0.06417800  0.09877100  0.54880900  1
  N  23  1  0.94156800  0.89840800  0.64045000  1
  N  24  1  0.88179800  0.01074400  0.56028900  1
  N  45  1  0.78556600  0.56074300  0.45092400  1
  N  46  1  0.73015800  0.55017000  0.35423600  1
  N  47  1  0.60754300  0.64184300  0.46321000  1
  N  48  1  0.54778300  0.56188600  0.43093400  1
  N  69  1  0.45183100  0.45252200  0.99013300  1
  N  70  1  0.39666200  0.35596000  0.09749800  1
  N  71  1  0.27385300  0.46463400  0.89687300  1
  N  72  1  0.21405600  0.43229700  0.00913800  1
  N  93  1  0.61937700  0.01184500  0.44087700  1
  N  94  1  0.56424500  0.90453400  0.45148700  1
  N  95  1  0.44110800  0.10502300  0.35983000  1
  N  96  1  0.38165700  0.99267800  0.43981400  1
  N  117  1  0.28566700  0.44239700  0.54923800  1
  N  118  1  0.23034400  0.45297800  0.64596500  1
  N  119  1  0.10782000  0.36121800  0.53720000  1
  N  120  1  0.04793800  0.44122100  0.56949500  1
  N  141  1  0.95172900  0.55071600  0.01024000  1
  N  142  1  0.89655100  0.64766200  0.90288600  1
  N  143  1  0.77367000  0.53884900  0.10313700  1
  N  144  1  0.71403000  0.57110800  0.99077800  1
  N  161  1  0.29295200  0.89149100  0.56738000  1
  N  162  1  0.23677300  0.99256400  0.45441900  1
  N  163  1  0.19986400  0.90044900  0.51298600  1
  N  164  1  0.26491500  0.98324300  0.54666100  1
  N  193  1  0.95876100  0.56885600  0.54279500  1
  N  194  1  0.90303700  0.45578000  0.55491400  1
  N  195  1  0.86582200  0.51453300  0.58827300  1
  N  196  1  0.93097500  0.54789900  0.47188400  1
  N  225  1  0.62493100  0.54406300  0.89011000  1
  N  226  1  0.56919100  0.55657100  0.99091700  1
  N  227  1  0.53193500  0.58982300  0.89890100  1
  N  228  1  0.59719100  0.47334800  0.98199000  1
  N  257  1  0.79250400  0.11172000  0.43267000  1
  N  258  1  0.73692600  0.01070200  0.54580800  1
  N  259  1  0.69960900  0.10279600  0.48725200  1
  N  260  1  0.76475700  0.01992700  0.45354600  1
  N  289  1  0.45888700  0.43442100  0.45730300  1
  N  290  1  0.40291100  0.54742400  0.44551300  1
  N  291  1  0.36584000  0.48896000  0.41184100  1
  N  292  1  0.43102700  0.45512300  0.52838900  1
  N  321  1  0.12495800  0.45851900  0.11034200  1
  N  322  1  0.06914400  0.44684100  0.00909100  1
  N  323  1  0.03199000  0.41320200  0.10118600  1
  N  324  1  0.09710100  0.52965600  0.01857900  1
  N  353  1  0.16236000  0.24318700  0.51257800  1
  N  354  1  0.03110600  0.28986800  0.48754800  1
  N  355  1  0.09651100  0.25576500  0.43830300  1
  N  356  1  0.07227100  0.21036500  0.56957700  1
  N  385  1  0.82836300  0.51379800  0.24584800  1
  N  386  1  0.69703800  0.48925700  0.22423700  1
  N  387  1  0.76263700  0.43969400  0.30752500  1
  N  388  1  0.73821400  0.57104300  0.22185200  1
  N  417  1  0.49485500  0.24771000  0.24161500  1
  N  418  1  0.36386400  0.22593100  0.28864500  1
  N  419  1  0.42895200  0.30935400  0.25434800  1
  N  420  1  0.40466700  0.22341900  0.20904200  1
  N  449  1  0.66245800  0.75948100  0.48804700  1
  N  450  1  0.53106500  0.71363200  0.51272200  1
  N  451  1  0.59666300  0.74731400  0.56214900  1
  N  452  1  0.57240700  0.79287700  0.43082100  1
  N  481  1  0.32847800  0.48928900  0.75431800  1
  N  482  1  0.19715000  0.51426600  0.77571500  1
  N  483  1  0.26262600  0.56354000  0.69249300  1
  N  484  1  0.23841500  0.43227600  0.77830000  1
  N  513  1  0.99587700  0.75560600  0.75857500  1
  N  514  1  0.86471800  0.77755200  0.71175400  1
  N  515  1  0.93004900  0.69411500  0.74578100  1
  N  516  1  0.90572300  0.77983500  0.79139700  1
  O  8  1  0.87729700  0.93754200  0.60859400  1
  O  15  1  0.12692500  0.06208900  0.54457200  1
  O  32  1  0.54325900  0.61013000  0.45593400  1
  O  39  1  0.79293500  0.54581500  0.39511900  1
  O  56  1  0.20954000  0.45725000  0.93590400  1
  O  63  1  0.45930600  0.39678900  0.06088100  1
  O  80  1  0.37693900  0.06590900  0.39156600  1
  O  87  1  0.62691200  0.94111800  0.45583200  1
  O  104  1  0.04348800  0.39294600  0.54454700  1
  O  111  1  0.29305100  0.45735900  0.60500600  1
  O  128  1  0.70943700  0.54616200  0.06398900  1
  O  135  1  0.95923000  0.60653900  0.93956000  1
  O  165  1  0.29820300  0.85941200  0.57281400  1
  O  166  1  0.25978300  0.01760400  0.52879100  1
  O  167  1  0.17705600  0.91235600  0.48624700  1
  O  168  1  0.24487300  0.02574100  0.44345300  1
  O  169  1  0.31622400  0.89730400  0.58676400  1
  O  170  1  0.27559800  0.97412800  0.57880500  1
  O  171  1  0.19187900  0.86734700  0.53552500  1
  O  172  1  0.22584800  0.98979400  0.42728400  1
  O  197  1  0.96391200  0.57436400  0.56939800  1
  O  198  1  0.92593900  0.52996600  0.45546100  1
  O  199  1  0.84307600  0.48780700  0.60315800  1
  O  200  1  0.91125100  0.44474600  0.53276200  1
  O  201  1  0.98202200  0.58820200  0.51759800  1
  O  202  1  0.94158800  0.58002200  0.44880300  1
  O  203  1  0.85774200  0.53713900  0.59875300  1
  O  204  1  0.89214100  0.42868800  0.58484000  1
  O  229  1  0.63005400  0.57060700  0.85796900  1
  O  230  1  0.59216700  0.45697000  0.01635000  1
  O  231  1  0.50917500  0.60477300  0.91072500  1
  O  232  1  0.57742800  0.53447000  0.02411400  1
  O  233  1  0.64822100  0.51881100  0.89600600  1
  O  234  1  0.60782500  0.45022100  0.97298100  1
  O  235  1  0.52384900  0.60028300  0.86582500  1
  O  236  1  0.55826400  0.58655300  0.98800800  1
  O  261  1  0.79762700  0.14382000  0.42718100  1
  O  262  1  0.75975600  0.98556800  0.47144600  1
  O  263  1  0.67690400  0.09091300  0.51403200  1
  O  264  1  0.74517000  0.97752300  0.55680300  1
  O  265  1  0.81575600  0.10589400  0.41326600  1
  O  266  1  0.77532700  0.02901900  0.42138700  1
  O  267  1  0.69149000  0.13589400  0.46470500  1
  O  268  1  0.72604700  0.01351200  0.57293600  1
  O  293  1  0.46404700  0.42900800  0.43064000  1
  O  294  1  0.42593800  0.47296900  0.54490500  1
  O  295  1  0.34303800  0.51572500  0.39700400  1
  O  296  1  0.41109900  0.55835700  0.46773900  1
  O  297  1  0.48219400  0.41498900  0.48249200  1
  O  298  1  0.44170700  0.42295900  0.55140500  1
  O  299  1  0.35782000  0.46644600  0.40125000  1
  O  300  1  0.39195500  0.57458800  0.41561600  1
  O  325  1  0.13015800  0.43184000  0.14241100  1
  O  326  1  0.09205700  0.54618500  0.98420900  1
  O  327  1  0.00925300  0.39840500  0.08922400  1
  O  328  1  0.07731200  0.46908700  0.97593400  1
  O  329  1  0.14819900  0.48369100  0.10459500  1
  O  330  1  0.10770100  0.55265500  0.02774300  1
  O  331  1  0.02391000  0.40261400  0.13428300  1
  O  332  1  0.05827000  0.41696200  0.01179800  1
  O  357  1  0.18872500  0.25638900  0.48917600  1
  O  358  1  0.09470900  0.18888500  0.59461400  1
  O  359  1  0.12549100  0.24681000  0.42688100  1
  O  360  1  0.02045500  0.31634400  0.45702500  1
  O  361  1  0.17668000  0.22789300  0.54440200  1
  O  362  1  0.03941700  0.20662200  0.58295900  1
  O  363  1  0.07037300  0.26478400  0.41476300  1
  O  364  1  0.00917400  0.28758700  0.51237500  1
  O  389  1  0.85471500  0.49031400  0.25598600  1
  O  390  1  0.76065300  0.59601700  0.21829300  1
  O  391  1  0.79166700  0.42820300  0.32783300  1
  O  392  1  0.68635500  0.45879200  0.22823700  1
  O  393  1  0.84269600  0.54557800  0.22935100  1
  O  394  1  0.70534300  0.58449400  0.21229400  1
  O  395  1  0.73653500  0.41619000  0.32207800  1
  O  396  1  0.67510200  0.51417200  0.20174200  1
  O  421  1  0.52126900  0.25794800  0.25474100  1
  O  422  1  0.42701600  0.21986900  0.18752100  1
  O  423  1  0.45786100  0.32975600  0.24532000  1
  O  424  1  0.35333200  0.22998000  0.31513800  1
  O  425  1  0.50912400  0.23118500  0.22629600  1
  O  426  1  0.37181200  0.21375100  0.20537200  1
  O  427  1  0.40283400  0.32385700  0.26341900  1
  O  428  1  0.34195700  0.20335600  0.28642900  1
  O  453  1  0.68879900  0.74610600  0.51151600  1
  O  454  1  0.59488200  0.81422700  0.40583500  1
  O  455  1  0.62568600  0.75609200  0.57363800  1
  O  456  1  0.52035100  0.68722200  0.54321200  1
  O  457  1  0.67680200  0.77468900  0.45626000  1
  O  458  1  0.53955000  0.79681500  0.41737100  1
  O  459  1  0.57052600  0.73844600  0.58563300  1
  O  460  1  0.50912400  0.71606400  0.48783300  1
  O  485  1  0.35481200  0.51270100  0.74417200  1
  O  486  1  0.26088400  0.40723200  0.78192000  1
  O  487  1  0.29162900  0.57494800  0.67220000  1
  O  488  1  0.18644500  0.54478300  0.77164800  1
  O  489  1  0.34283800  0.45747200  0.77087500  1
  O  490  1  0.20556300  0.41890500  0.78784700  1
  O  491  1  0.23648200  0.58709000  0.67789500  1
  O  492  1  0.17523700  0.48942800  0.79821600  1
  O  517  1  0.02226500  0.74537400  0.74537700  1
  O  518  1  0.92812400  0.78330000  0.81292300  1
  O  519  1  0.95901500  0.67369600  0.75471200  1
  O  520  1  0.85411900  0.77355300  0.68525300  1
  O  521  1  0.01017100  0.77208400  0.77390300  1
  O  522  1  0.87286400  0.78951600  0.79513800  1
  O  523  1  0.90392400  0.67967500  0.73670600  1
  O  524  1  0.84278600  0.80012600  0.71403900  1
