# generated using pymatgen
data_CoH20C28(NO2)2
_symmetry_space_group_name_H-M   'P 1'
_cell_length_a   8.63069000
_cell_length_b   13.17972000
_cell_length_c   14.15095497
_cell_angle_alpha   62.51163268
_cell_angle_beta   84.49884854
_cell_angle_gamma   78.06510000
_symmetry_Int_Tables_number   1
_chemical_formula_structural   CoH20C28(NO2)2
_chemical_formula_sum   'Co2 H40 C56 N4 O8'
_cell_volume   1397.07976230
_cell_formula_units_Z   2
loop_
 _symmetry_equiv_pos_site_id
 _symmetry_equiv_pos_as_xyz
  1  'x, y, z'
loop_
 _atom_site_type_symbol
 _atom_site_label
 _atom_site_symmetry_multiplicity
 _atom_site_fract_x
 _atom_site_fract_y
 _atom_site_fract_z
 _atom_site_occupancy
  Co  Co1  1  0.20297000  0.30636000  0.18254000  1.0
  Co  Co2  1  0.69874000  0.48883000  0.81690000  1.0
  H  H1  1  0.45390000  0.01390000  0.82298000  1.0
  H  H2  1  0.31022000  0.47324000  0.96364000  1.0
  H  H3  1  0.55834000  0.19656000  0.75690000  1.0
  H  H4  1  0.40142000  0.81837000  0.11852000  1.0
  H  H5  1  0.07252000  0.50514000  0.51124000  1.0
  H  H6  1  0.78883000  0.89141000  0.52278000  1.0
  H  H7  1  0.57346000  0.01999000  0.48790000  1.0
  H  H8  1  0.03629000  0.40556000  0.89176000  1.0
  H  H9  1  0.06086000  0.95294000  0.24369000  1.0
  H  H10  1  0.27011000  0.68237000  0.17880000  1.0
  H  H11  1  0.89590000  0.54550000  0.11528000  1.0
  H  H12  1  0.19806000  0.95632000  0.40406000  1.0
  H  H13  1  0.95445000  0.83707000  0.17712000  1.0
  H  H14  1  0.68667000  0.38758000  0.23657000  1.0
  H  H15  1  0.42894000  0.83496000  0.89364000  1.0
  H  H16  1  0.02655000  0.08891000  0.85402000  1.0
  H  H17  1  0.80841000  0.43769000  0.03373000  1.0
  H  H18  1  0.13323000  0.20383000  0.92221000  1.0
  H  H19  1  0.53945000  0.30003000  0.10811000  1.0
  H  H20  1  0.39338000  0.66311000  0.88288000  1.0
  H  H21  1  0.93108000  0.72832000  0.10567000  1.0
  H  H22  1  0.80402000  0.19153000  0.18471000  1.0
  H  H23  1  0.30096000  0.37181000  0.81540000  1.0
  H  H24  1  0.46658000  0.40352000  0.65936000  1.0
  H  H25  1  0.94729000  0.33000000  0.50579000  1.0
  H  H26  1  0.43355000  0.41269000  0.33006000  1.0
  H  H27  1  0.69522000  0.35937000  0.59947000  1.0
  H  H28  1  0.63474000  0.12630000  0.07868000  1.0
  H  H29  1  0.68406000  0.73782000  0.75245000  1.0
  H  H30  1  0.52928000  0.94319000  0.14630000  1.0
  H  H31  1  0.31789000  0.13894000  0.39924000  1.0
  H  H32  1  0.76814000  0.86019000  0.82174000  1.0
  H  H33  1  0.96941000  0.06525000  0.34177000  1.0
  H  H34  1  0.92616000  0.74343000  0.66712000  1.0
  H  H35  1  0.18848000  0.49065000  0.24730000  1.0
  H  H36  1  0.17538000  0.62123000  0.76296000  1.0
  H  H37  1  0.29086000  0.41230000  0.47497000  1.0
  H  H38  1  0.81651000  0.53764000  0.59925000  1.0
  H  H39  1  0.44619000  0.82971000  0.50000000  1.0
  H  H40  1  0.89960000  0.93593000  0.88167000  1.0
  C  C1  1  0.68729000  0.38128000  0.31580000  1.0
  C  C2  1  0.54613000  0.39584000  0.36796000  1.0
  C  C3  1  0.49540000  0.03704000  0.87938000  1.0
  C  C4  1  0.10294000  0.08646000  0.08684000  1.0
  C  C5  1  0.32603000  0.71792000  0.63735000  1.0
  C  C6  1  0.19645000  0.40700000  0.76492000  1.0
  C  C7  1  0.28207000  0.63933000  0.12815000  1.0
  C  C8  1  0.48509000  0.96449000  0.98983000  1.0
  C  C9  1  0.39229000  0.40604000  0.51925000  1.0
  C  C10  1  0.04299000  0.85920000  0.52959000  1.0
  C  C11  1  0.73258000  0.69997000  0.83227000  1.0
  C  C12  1  0.83340000  0.34934000  0.46815000  1.0
  C  C13  1  0.53646000  0.99838000  0.06092000  1.0
  C  C14  1  0.65102000  0.28810000  0.87195000  1.0
  C  C15  1  0.92363000  0.88914000  0.96697000  1.0
  C  C16  1  0.15423000  0.15896000  0.12887000  1.0
  C  C17  1  0.19187000  0.88331000  0.48266000  1.0
  C  C18  1  0.23559000  0.53288000  0.16715000  1.0
  C  C19  1  0.69223000  0.36566000  0.52003000  1.0
  C  C20  1  0.98453000  0.95373000  0.01043000  1.0
  C  C21  1  0.90034000  0.77773000  0.02156000  1.0
  C  C22  1  0.80061000  0.53153000  0.98928000  1.0
  C  C23  1  0.86865000  0.02868000  0.38810000  1.0
  C  C24  1  0.54534000  0.38868000  0.47058000  1.0
  C  C25  1  0.89180000  0.92793000  0.47987000  1.0
  C  C26  1  0.71346000  0.09326000  0.34332000  1.0
  C  C27  1  0.55148000  0.23765000  0.19221000  1.0
  C  C28  1  0.42431000  0.85678000  0.03305000  1.0
  C  C29  1  0.92682000  0.49894000  0.64388000  1.0
  C  C30  1  0.57204000  0.07972000  0.40324000  1.0
  C  C31  1  0.99583000  0.91629000  0.12091000  1.0
  C  C32  1  0.17885000  0.69450000  0.68467000  1.0
  C  C33  1  0.05449000  0.98135000  0.15852000  1.0
  C  C34  1  0.83261000  0.35657000  0.36573000  1.0
  C  C35  1  0.04849000  0.42707000  0.80756000  1.0
  C  C36  1  0.69938000  0.17566000  0.23505000  1.0
  C  C37  1  0.30187000  0.52211000  0.00899000  1.0
  C  C38  1  0.21104000  0.43314000  0.65639000  1.0
  C  C39  1  0.60154000  0.17349000  0.91376000  1.0
  C  C40  1  0.84961000  0.59327000  0.03455000  1.0
  C  C41  1  0.47428000  0.64156000  0.69384000  1.0
  C  C42  1  0.39953000  0.80033000  0.97801000  1.0
  C  C43  1  0.78047000  0.76685000  0.87170000  1.0
  C  C44  1  0.33090000  0.81308000  0.53589000  1.0
  C  C45  1  0.42885000  0.14524000  0.35525000  1.0
  C  C46  1  0.36678000  0.41357000  0.61202000  1.0
  C  C47  1  0.09405000  0.12349000  0.97711000  1.0
  C  C48  1  0.34883000  0.62946000  0.96406000  1.0
  C  C49  1  0.07014000  0.48039000  0.59605000  1.0
  C  C50  1  0.34271000  0.69106000  0.02375000  1.0
  C  C51  1  0.55301000  0.13974000  0.84197000  1.0
  C  C52  1  0.03990000  0.76333000  0.63099000  1.0
  C  C53  1  0.59488000  0.10092000  0.02353000  1.0
  C  C54  1  0.03474000  0.05859000  0.93947000  1.0
  C  C55  1  0.84289000  0.71420000  0.97567000  1.0
  C  C56  1  0.98310000  0.33667000  0.31077000  1.0
  N  N1  1  0.91445000  0.47276000  0.74855000  1.0
  N  N2  1  0.24612000  0.47251000  0.10988000  1.0
  N  N3  1  0.74291000  0.58287000  0.88888000  1.0
  N  N4  1  0.41712000  0.22356000  0.25085000  1.0
  O  O1  1  0.60952000  0.66491000  0.65695000  1.0
  O  O2  1  0.65825000  0.35101000  0.77201000  1.0
  O  O3  1  0.46214000  0.55046000  0.78296000  1.0
  O  O4  1  0.16566000  0.12086000  0.22869000  1.0
  O  O5  1  0.11711000  0.32414000  0.34835000  1.0
  O  O6  1  0.97225000  0.33325000  0.22161000  1.0
  O  O7  1  0.67965000  0.32571000  0.93735000  1.0
  O  O8  1  0.18004000  0.26256000  0.06399000  1.0
