# generated using pymatgen
data_H14C24N2O
_symmetry_space_group_name_H-M   'P 1'
_cell_length_a   9.94386667
_cell_length_b   30.08645000
_cell_length_c   30.08640000
_cell_angle_alpha   119.99983508
_cell_angle_beta   90.00000000
_cell_angle_gamma   90.00000000
_symmetry_Int_Tables_number   1
_chemical_formula_structural   H14C24N2O
_chemical_formula_sum   'H42 C72 N6 O3'
_cell_volume   7795.20997324
_cell_formula_units_Z   3
loop_
 _symmetry_equiv_pos_site_id
 _symmetry_equiv_pos_as_xyz
  1  'x, y, z'
loop_
 _atom_site_type_symbol
 _atom_site_label
 _atom_site_symmetry_multiplicity
 _atom_site_fract_x
 _atom_site_fract_y
 _atom_site_fract_z
 _atom_site_occupancy
  C  1  1  0.86607500  0.96809800  0.48475500  1
  C  2  1  0.11084800  0.96912500  0.48526800  1
  C  3  1  0.62597100  0.96577100  0.48359100  1
  C  10  1  0.98955700  0.94105600  0.47123400  1
  C  22  1  0.99200700  0.71851000  0.35996200  1
  C  23  1  0.99201000  0.68889400  0.30546400  1
  C  24  1  0.99201000  0.63439600  0.27584800  1
  C  25  1  0.99201000  0.60951600  0.30546300  1
  C  26  1  0.99200100  0.63439700  0.35996100  1
  C  27  1  0.99200700  0.68889500  0.38484200  1
  C  28  1  0.99244200  0.60610200  0.21925600  1
  C  29  1  0.99253500  0.63107100  0.18943100  1
  C  30  1  0.99288600  0.60426800  0.13537100  1
  C  31  1  0.99362100  0.55032400  0.10770200  1
  C  32  1  0.99288600  0.52404900  0.13536900  1
  C  33  1  0.99253500  0.55130600  0.18943000  1
  C  34  1  0.99243300  0.77510200  0.38825600  1
  C  35  1  0.99253500  0.80492700  0.36328700  1
  C  36  1  0.99289500  0.85898700  0.39009000  1
  C  37  1  0.99363600  0.88665700  0.44403500  1
  C  38  1  0.99288600  0.85898600  0.47031000  1
  C  39  1  0.99252300  0.80492700  0.44305100  1
  C  40  1  0.99243300  0.60610100  0.38825600  1
  C  41  1  0.99252300  0.63107200  0.44305100  1
  C  42  1  0.99289500  0.60426900  0.47031000  1
  C  43  1  0.99363900  0.55032300  0.44403500  1
  C  44  1  0.99289500  0.52404900  0.39009000  1
  C  45  1  0.99253500  0.55130600  0.36328500  1
  C  61  1  0.99224500  0.27301600  0.63721300  1
  C  62  1  0.99226200  0.30263900  0.69171500  1
  C  63  1  0.99225300  0.35714000  0.72133700  1
  C  64  1  0.99226200  0.38202200  0.69171700  1
  C  65  1  0.99224100  0.35714100  0.63721300  1
  C  66  1  0.99225300  0.30264100  0.61233600  1
  C  67  1  0.99228300  0.38544400  0.77794300  1
  C  68  1  0.99209100  0.36048000  0.80777400  1
  C  69  1  0.99152000  0.38728300  0.86183800  1
  C  70  1  0.99134900  0.44123500  0.88952300  1
  C  71  1  0.99150900  0.46750200  0.86184000  1
  C  72  1  0.99210100  0.44024000  0.80777500  1
  C  73  1  0.99228300  0.21641400  0.60891300  1
  C  74  1  0.99209700  0.18658100  0.63387500  1
  C  75  1  0.99152800  0.13251700  0.60707200  1
  C  76  1  0.99135900  0.10483200  0.55312000  1
  C  77  1  0.99151500  0.13251800  0.52685600  1
  C  78  1  0.99209100  0.18658200  0.55411700  1
  C  79  1  0.99228000  0.38544200  0.60891200  1
  C  80  1  0.99210100  0.36048000  0.55411700  1
  C  81  1  0.99150000  0.38728300  0.52685500  1
  C  82  1  0.99135900  0.44123300  0.55312000  1
  C  83  1  0.99152900  0.46750200  0.60707400  1
  C  84  1  0.99209100  0.44024000  0.63387700  1
  C  100  1  0.98664800  0.46844000  0.94393500  1
  C  101  1  0.86309000  0.48222500  0.97150200  1
  C  102  1  0.86606700  0.50960200  0.02625900  1
  C  103  1  0.98954800  0.52312400  0.05330200  1
  C  104  1  0.11083700  0.50909000  0.02523300  1
  C  105  1  0.10935700  0.48210900  0.97127500  1
  C  107  1  0.62596800  0.51076600  0.02858600  1
  C  108  1  0.62193500  0.48385600  0.97476800  1
  C  115  1  0.98665400  0.46844200  0.52591800  1
  C  116  1  0.86309800  0.48222300  0.51213100  1
  C  117  1  0.86607500  0.50960200  0.48475600  1
  C  118  1  0.98955700  0.52312300  0.47123400  1
  C  119  1  0.11084800  0.50909000  0.48526800  1
  C  120  1  0.10936000  0.48211100  0.51224800  1
  C  122  1  0.62597100  0.51076600  0.48359000  1
  C  123  1  0.62194600  0.48385500  0.51049800  1
  C  130  1  0.98665400  0.05042200  0.52591700  1
  C  131  1  0.86309800  0.02285400  0.51213100  1
  C  132  1  0.10935900  0.02308300  0.51224900  1
  C  133  1  0.62194600  0.01958700  0.51049900  1
  H  12  1  0.53972500  0.94449400  0.47295300  1
  H  13  1  0.20149600  0.95048300  0.47594800  1
  H  46  1  0.99196100  0.87805000  0.36984500  1
  H  47  1  0.99179100  0.78851100  0.32446500  1
  H  48  1  0.99197100  0.87804800  0.50961700  1
  H  49  1  0.99180000  0.78851000  0.46545900  1
  H  50  1  0.99180000  0.66989400  0.46545800  1
  H  51  1  0.99197100  0.62451300  0.50961700  1
  H  52  1  0.99179100  0.52890000  0.32446400  1
  H  53  1  0.99196100  0.48474200  0.36984600  1
  H  54  1  0.99182100  0.52890000  0.20584500  1
  H  55  1  0.99197400  0.48474300  0.11630800  1
  H  56  1  0.99198000  0.62451400  0.11630900  1
  H  57  1  0.99182100  0.66989300  0.20584700  1
  H  58  1  0.99231300  0.70812400  0.28623400  1
  H  59  1  0.99231300  0.70812400  0.42330300  1
  H  60  1  0.99231300  0.57105500  0.28623400  1
  H  85  1  0.99033400  0.11346000  0.62731900  1
  H  86  1  0.99177900  0.20300400  0.67270000  1
  H  87  1  0.99034500  0.11346000  0.48754900  1
  H  88  1  0.99180600  0.20300300  0.53171400  1
  H  89  1  0.99180000  0.32165800  0.53171600  1
  H  90  1  0.99034500  0.36703400  0.48754900  1
  H  91  1  0.99177900  0.46264100  0.67269900  1
  H  92  1  0.99034300  0.50680400  0.62731900  1
  H  93  1  0.99181300  0.46264000  0.79135100  1
  H  94  1  0.99035300  0.50680600  0.88089600  1
  H  95  1  0.99035300  0.36703400  0.88089700  1
  H  96  1  0.99180900  0.32165800  0.79135400  1
  H  97  1  0.99244600  0.28340700  0.71094700  1
  H  98  1  0.99243300  0.28340900  0.57387300  1
  H  99  1  0.99244200  0.42048400  0.71094800  1
  H  110  1  0.53971400  0.52140400  0.04986300  1
  H  111  1  0.19917900  0.47250200  0.95206100  1
  H  112  1  0.20148600  0.51841000  0.04387500  1
  H  114  1  0.73299000  0.45185800  0.91077300  1
  H  125  1  0.53972500  0.52140500  0.47295100  1
  H  126  1  0.19918400  0.47250500  0.52185600  1
  H  127  1  0.20149600  0.51841100  0.47594800  1
  H  129  1  0.73299900  0.45186100  0.54250000  1
  H  135  1  0.19918400  0.04229600  0.52185100  1
  H  137  1  0.73299900  0.08358400  0.54249900  1
  N  11  1  0.74721600  0.94222500  0.47182000  1
  N  106  1  0.74720800  0.52253900  0.05213000  1
  N  109  1  0.73950400  0.47048900  0.94803300  1
  N  121  1  0.74721700  0.52253700  0.47181900  1
  N  124  1  0.73951100  0.47048800  0.52386600  1
  N  134  1  0.73951100  0.04632300  0.52386700  1
  O  113  1  0.50208300  0.47155900  0.95017400  1
  O  128  1  0.50209300  0.47155800  0.52279500  1
  O  136  1  0.50209300  0.04418200  0.52279700  1
