# generated using pymatgen
data_CuH28C28(N2O)4
_symmetry_space_group_name_H-M   'P 1'
_cell_length_a   8.95879000
_cell_length_b   17.67911000
_cell_length_c   21.45653000
_cell_angle_alpha   89.88785000
_cell_angle_beta   89.95569000
_cell_angle_gamma   89.98596000
_symmetry_Int_Tables_number   1
_chemical_formula_structural   CuH28C28(N2O)4
_chemical_formula_sum   'Cu4 H112 C112 N32 O16'
_cell_volume   3398.35127330
_cell_formula_units_Z   4
loop_
 _symmetry_equiv_pos_site_id
 _symmetry_equiv_pos_as_xyz
  1  'x, y, z'
loop_
 _atom_site_type_symbol
 _atom_site_label
 _atom_site_symmetry_multiplicity
 _atom_site_fract_x
 _atom_site_fract_y
 _atom_site_fract_z
 _atom_site_occupancy
  Cu  Cu0  1  0.01989000  0.89387000  0.88954000  1
  Cu  Cu1  1  0.97817000  0.39279000  0.10939000  1
  Cu  Cu2  1  0.98159000  0.89464000  0.38945000  1
  Cu  Cu3  1  0.02208000  0.39257000  0.60984000  1
  H  H4  1  0.70424000  0.94520000  0.89224000  1
  H  H5  1  0.95592000  0.84813000  0.03409000  1
  H  H6  1  0.83430000  0.93079000  0.11362000  1
  H  H7  1  0.64069000  0.02159000  0.08188000  1
  H  H8  1  0.70996000  0.31285000  0.07377000  1
  H  H9  1  0.92303000  0.50846000  0.01562000  1
  H  H10  1  0.76634000  0.51650000  0.91918000  1
  H  H11  1  0.57468000  0.41609000  0.89894000  1
  H  H12  1  0.51056000  0.09670000  0.03870000  1
  H  H13  1  0.48162000  0.27219000  0.06690000  1
  H  H14  1  0.25277000  0.10564000  0.96990000  1
  H  H15  1  0.37964000  0.16028000  0.92521000  1
  H  H16  1  0.23150000  0.23911000  0.99718000  1
  H  H17  1  0.29953000  0.18814000  0.06276000  1
  H  H18  1  0.32372000  0.91594000  0.84466000  1
  H  H19  1  0.08840000  0.72643000  0.79086000  1
  H  H20  1  0.16959000  0.74106000  0.67963000  1
  H  H21  1  0.34242000  0.84768000  0.65165000  1
  H  H22  1  0.77017000  0.30960000  0.63422000  1
  H  H23  1  0.00891000  0.46156000  0.74317000  1
  H  H24  1  0.86218000  0.42513000  0.83809000  1
  H  H25  1  0.66765000  0.32607000  0.83098000  1
  H  H26  1  0.48831000  0.98530000  0.82124000  1
  H  H27  1  0.57421000  0.22701000  0.81225000  1
  H  H28  1  0.66689000  0.07535000  0.80053000  1
  H  H29  1  0.63845000  0.06595000  0.71850000  1
  H  H30  1  0.40180000  0.12913000  0.80766000  1
  H  H31  1  0.40074000  0.13418000  0.72441000  1
  H  H32  1  0.29461000  0.44458000  0.10772000  1
  H  H33  1  0.04509000  0.34879000  0.96500000  1
  H  H34  1  0.16698000  0.43241000  0.88600000  1
  H  H35  1  0.35886000  0.52344000  0.91854000  1
  H  H36  1  0.29096000  0.81530000  0.92511000  1
  H  H37  1  0.07159000  0.00887000  0.98346000  1
  H  H38  1  0.22675000  0.01696000  0.08032000  1
  H  H39  1  0.42048000  0.91748000  0.10076000  1
  H  H40  1  0.48630000  0.59907000  0.96208000  1
  H  H41  1  0.51572000  0.77332000  0.93309000  1
  H  H42  1  0.74538000  0.60765000  0.03126000  1
  H  H43  1  0.61688000  0.66181000  0.07536000  1
  H  H44  1  0.76476000  0.74111000  0.00356000  1
  H  H45  1  0.69880000  0.68989000  0.93795000  1
  H  H46  1  0.67195000  0.41474000  0.15425000  1
  H  H47  1  0.90778000  0.22464000  0.20691000  1
  H  H48  1  0.83282000  0.23990000  0.31879000  1
  H  H49  1  0.66232000  0.34704000  0.34767000  1
  H  H50  1  0.23282000  0.81142000  0.36494000  1
  H  H51  1  0.99413000  0.96367000  0.25579000  1
  H  H52  1  0.13618000  0.92497000  0.16038000  1
  H  H53  1  0.32845000  0.82490000  0.16734000  1
  H  H54  1  0.51158000  0.48557000  0.17893000  1
  H  H55  1  0.42566000  0.72632000  0.18656000  1
  H  H56  1  0.33424000  0.57550000  0.20066000  1
  H  H57  1  0.36504000  0.56576000  0.28258000  1
  H  H58  1  0.60106000  0.62913000  0.19319000  1
  H  H59  1  0.59935000  0.63567000  0.27633000  1
  H  H60  1  0.30074000  0.94474000  0.39125000  1
  H  H61  1  0.04749000  0.84846000  0.53312000  1
  H  H62  1  0.17044000  0.93045000  0.61276000  1
  H  H63  1  0.36467000  0.02087000  0.58088000  1
  H  H64  1  0.29063000  0.31308000  0.57378000  1
  H  H65  1  0.07563000  0.50813000  0.51532000  1
  H  H66  1  0.23186000  0.51589000  0.41865000  1
  H  H67  1  0.42414000  0.41570000  0.39841000  1
  H  H68  1  0.48781000  0.09863000  0.53763000  1
  H  H69  1  0.51893000  0.27346000  0.56677000  1
  H  H70  1  0.75030000  0.10661000  0.47068000  1
  H  H71  1  0.62469000  0.16108000  0.42529000  1
  H  H72  1  0.76913000  0.24020000  0.49834000  1
  H  H73  1  0.69956000  0.18868000  0.56334000  1
  H  H74  1  0.67437000  0.91525000  0.34498000  1
  H  H75  1  0.91113000  0.72616000  0.29106000  1
  H  H76  1  0.83221000  0.74148000  0.17964000  1
  H  H77  1  0.66014000  0.84832000  0.15160000  1
  H  H78  1  0.22901000  0.30940000  0.13396000  1
  H  H79  1  0.99067000  0.46188000  0.24276000  1
  H  H80  1  0.13722000  0.42553000  0.33769000  1
  H  H81  1  0.33170000  0.32643000  0.33052000  1
  H  H82  1  0.51335000  0.98525000  0.32148000  1
  H  H83  1  0.42598000  0.22770000  0.31218000  1
  H  H84  1  0.33506000  0.07531000  0.30224000  1
  H  H85  1  0.35956000  0.06628000  0.21995000  1
  H  H86  1  0.59858000  0.13001000  0.30774000  1
  H  H87  1  0.59849000  0.13432000  0.22440000  1
  H  H88  1  0.70460000  0.44372000  0.60791000  1
  H  H89  1  0.95542000  0.34753000  0.46559000  1
  H  H90  1  0.83370000  0.43076000  0.38631000  1
  H  H91  1  0.64210000  0.52210000  0.41856000  1
  H  H92  1  0.71377000  0.81395000  0.42591000  1
  H  H93  1  0.92842000  0.00904000  0.48383000  1
  H  H94  1  0.77273000  0.01645000  0.58066000  1
  H  H95  1  0.58058000  0.91632000  0.60116000  1
  H  H96  1  0.51231000  0.59651000  0.46123000  1
  H  H97  1  0.48576000  0.77422000  0.43351000  1
  H  H98  1  0.25452000  0.60709000  0.53000000  1
  H  H99  1  0.38297000  0.66047000  0.57471000  1
  H  H100  1  0.23712000  0.74080000  0.50324000  1
  H  H101  1  0.30346000  0.69024000  0.43733000  1
  H  H102  1  0.32640000  0.41568000  0.65449000  1
  H  H103  1  0.09241000  0.22486000  0.70693000  1
  H  H104  1  0.16761000  0.23985000  0.81873000  1
  H  H105  1  0.33816000  0.34682000  0.84769000  1
  H  H106  1  0.76599000  0.81275000  0.86567000  1
  H  H107  1  0.00988000  0.96207000  0.75559000  1
  H  H108  1  0.86587000  0.92424000  0.66054000  1
  H  H109  1  0.67056000  0.82570000  0.66819000  1
  H  H110  1  0.48832000  0.48577000  0.67889000  1
  H  H111  1  0.57523000  0.72754000  0.68783000  1
  H  H112  1  0.66509000  0.57581000  0.70003000  1
  H  H113  1  0.63590000  0.56603000  0.78207000  1
  H  H114  1  0.40051000  0.63079000  0.69304000  1
  H  H115  1  0.40020000  0.63593000  0.77626000  1
  C  C116  1  0.65625000  0.99082000  0.98248000  1
  C  C117  1  0.73149000  0.94261000  0.94159000  1
  C  C118  1  0.87187000  0.88948000  0.02066000  1
  C  C119  1  0.80377000  0.93579000  0.06473000  1
  C  C120  1  0.69504000  0.98754000  0.04637000  1
  C  C121  1  0.53923000  0.04014000  0.95560000  1
  C  C122  1  0.62580000  0.35604000  0.98511000  1
  C  C123  1  0.71607000  0.35673000  0.03809000  1
  C  C124  1  0.83780000  0.46661000  0.00551000  1
  C  C125  1  0.75078000  0.46990000  0.95182000  1
  C  C126  1  0.64495000  0.41421000  0.94022000  1
  C  C127  1  0.51252000  0.29675000  0.97261000  1
  C  C128  1  0.35507000  0.14024000  0.97236000  1
  C  C129  1  0.32771000  0.20728000  0.01550000  1
  C  C130  1  0.34663000  0.89100000  0.74590000  1
  C  C131  1  0.29511000  0.87787000  0.80652000  1
  C  C132  1  0.16232000  0.77236000  0.77684000  1
  C  C133  1  0.20697000  0.78096000  0.71490000  1
  C  C134  1  0.30144000  0.84055000  0.69904000  1
  C  C135  1  0.44033000  0.95802000  0.72835000  1
  C  C136  1  0.70467000  0.30805000  0.73060000  1
  C  C137  1  0.78876000  0.33387000  0.68012000  1
  C  C138  1  0.92076000  0.41945000  0.74108000  1
  C  C139  1  0.83973000  0.39802000  0.79356000  1
  C  C140  1  0.73104000  0.34167000  0.78950000  1
  C  C141  1  0.60146000  0.24381000  0.71779000  1
  C  C142  1  0.58285000  0.06804000  0.76395000  1
  C  C143  1  0.47175000  0.13486000  0.76599000  1
  C  C144  1  0.34309000  0.49141000  0.01769000  1
  C  C145  1  0.26785000  0.44265000  0.05832000  1
  C  C146  1  0.12857000  0.39017000  0.97878000  1
  C  C147  1  0.19683000  0.43694000  0.93498000  1
  C  C148  1  0.30474000  0.48878000  0.95379000  1
  C  C149  1  0.45987000  0.54064000  0.04471000  1
  C  C150  1  0.37200000  0.85799000  0.01427000  1
  C  C151  1  0.28295000  0.85881000  0.96090000  1
  C  C152  1  0.15797000  0.96757000  0.99356000  1
  C  C153  1  0.24395000  0.97079000  0.04756000  1
  C  C154  1  0.35091000  0.91569000  0.05927000  1
  C  C155  1  0.48569000  0.79911000  0.02710000  1
  C  C156  1  0.64250000  0.64178000  0.02836000  1
  C  C157  1  0.66944000  0.70890000  0.98505000  1
  C  C158  1  0.65450000  0.39037000  0.25335000  1
  C  C159  1  0.70232000  0.37677000  0.19234000  1
  C  C160  1  0.83525000  0.27089000  0.22140000  1
  C  C161  1  0.79409000  0.27983000  0.28367000  1
  C  C162  1  0.70125000  0.33983000  0.30003000  1
  C  C163  1  0.56312000  0.45792000  0.27148000  1
  C  C164  1  0.29547000  0.80857000  0.26814000  1
  C  C165  1  0.21327000  0.83517000  0.31886000  1
  C  C166  1  0.08085000  0.92079000  0.25787000  1
  C  C167  1  0.15923000  0.89822000  0.20508000  1
  C  C168  1  0.26703000  0.84142000  0.20904000  1
  C  C169  1  0.39866000  0.74425000  0.28095000  1
  C  C170  1  0.41930000  0.56817000  0.23684000  1
  C  C171  1  0.52965000  0.63531000  0.23436000  1
  C  C172  1  0.34819000  0.99058000  0.48156000  1
  C  C173  1  0.27309000  0.94249000  0.44061000  1
  C  C174  1  0.13221000  0.88952000  0.51975000  1
  C  C175  1  0.20078000  0.93546000  0.56385000  1
  C  C176  1  0.30973000  0.98707000  0.54545000  1
  C  C177  1  0.46502000  0.04021000  0.45508000  1
  C  C178  1  0.37387000  0.35603000  0.48485000  1
  C  C179  1  0.28390000  0.35683000  0.53801000  1
  C  C180  1  0.16108000  0.46632000  0.50526000  1
  C  C181  1  0.24768000  0.46941000  0.45137000  1
  C  C182  1  0.35396000  0.41392000  0.43978000  1
  C  C183  1  0.48752000  0.29691000  0.47240000  1
  C  C184  1  0.64762000  0.14100000  0.47256000  1
  C  C185  1  0.67271000  0.20797000  0.51599000  1
  C  C186  1  0.65366000  0.89105000  0.24601000  1
  C  C187  1  0.70392000  0.87748000  0.30674000  1
  C  C188  1  0.83752000  0.77219000  0.27699000  1
  C  C189  1  0.79409000  0.78117000  0.21496000  1
  C  C190  1  0.70003000  0.84093000  0.19911000  1
  C  C191  1  0.55986000  0.95815000  0.22850000  1
  C  C192  1  0.29467000  0.30805000  0.23032000  1
  C  C193  1  0.21055000  0.33373000  0.17984000  1
  C  C194  1  0.07865000  0.41965000  0.24070000  1
  C  C195  1  0.15950000  0.39827000  0.29319000  1
  C  C196  1  0.26807000  0.34185000  0.28912000  1
  C  C197  1  0.39842000  0.24392000  0.21766000  1
  C  C198  1  0.41736000  0.06815000  0.26490000  1
  C  C199  1  0.52812000  0.13513000  0.26620000  1
  C  C200  1  0.65684000  0.49024000  0.51774000  1
  C  C201  1  0.73182000  0.44164000  0.55853000  1
  C  C202  1  0.87170000  0.38890000  0.47921000  1
  C  C203  1  0.80360000  0.43546000  0.43526000  1
  C  C204  1  0.69558000  0.48736000  0.45388000  1
  C  C205  1  0.54046000  0.53991000  0.54451000  1
  C  C206  1  0.63109000  0.85663000  0.51487000  1
  C  C207  1  0.72050000  0.85770000  0.46154000  1
  C  C208  1  0.84295000  0.96725000  0.49400000  1
  C  C209  1  0.75666000  0.97013000  0.54798000  1
  C  C210  1  0.65058000  0.91457000  0.55974000  1
  C  C211  1  0.51861000  0.79710000  0.52769000  1
  C  C212  1  0.35787000  0.64091000  0.52756000  1
  C  C213  1  0.33243000  0.70856000  0.48465000  1
  C  C214  1  0.34537000  0.39063000  0.75341000  1
  C  C215  1  0.29677000  0.37738000  0.69248000  1
  C  C216  1  0.16459000  0.27119000  0.72144000  1
  C  C217  1  0.20620000  0.27992000  0.78367000  1
  C  C218  1  0.29901000  0.33987000  0.80006000  1
  C  C219  1  0.43677000  0.45820000  0.77148000  1
  C  C220  1  0.70439000  0.80949000  0.76889000  1
  C  C221  1  0.78649000  0.83615000  0.81952000  1
  C  C222  1  0.92154000  0.92010000  0.75794000  1
  C  C223  1  0.84212000  0.89794000  0.70535000  1
  C  C224  1  0.73286000  0.84196000  0.70969000  1
  C  C225  1  0.60144000  0.74529000  0.78210000  1
  C  C226  1  0.58070000  0.56856000  0.73656000  1
  C  C227  1  0.47098000  0.63604000  0.73457000  1
  N  N228  1  0.83828000  0.89305000  0.95854000  1
  N  N229  1  0.82074000  0.41023000  0.04897000  1
  N  N230  1  0.47934000  0.09398000  0.99329000  1
  N  N231  1  0.45536000  0.25774000  0.02226000  1
  N  N232  1  0.20496000  0.81995000  0.82258000  1
  N  N233  1  0.89558000  0.38744000  0.68401000  1
  N  N234  1  0.50748000  0.99663000  0.77512000  1
  N  N235  1  0.54949000  0.20671000  0.76918000  1
  N  N236  1  0.16143000  0.39315000  0.04096000  1
  N  N237  1  0.17728000  0.91181000  0.94989000  1
  N  N238  1  0.51941000  0.59495000  0.00717000  1
  N  N239  1  0.54109000  0.75884000  0.97785000  1
  N  N240  1  0.79078000  0.31842000  0.17581000  1
  N  N241  1  0.10703000  0.88910000  0.31507000  1
  N  N242  1  0.49432000  0.49681000  0.22518000  1
  N  N243  1  0.45094000  0.70686000  0.22989000  1
  N  N244  1  0.16584000  0.89316000  0.45761000  1
  N  N245  1  0.17880000  0.41016000  0.54888000  1
  N  N246  1  0.52316000  0.09441000  0.49282000  1
  N  N247  1  0.54420000  0.25800000  0.52225000  1
  N  N248  1  0.79391000  0.81952000  0.32276000  1
  N  N249  1  0.10375000  0.38736000  0.18371000  1
  N  N250  1  0.49308000  0.99667000  0.27545000  1
  N  N251  1  0.44953000  0.20680000  0.26919000  1
  N  N252  1  0.83839000  0.39207000  0.54136000  1
  N  N253  1  0.82501000  0.91130000  0.45039000  1
  N  N254  1  0.48092000  0.59385000  0.50665000  1
  N  N255  1  0.46130000  0.75831000  0.47806000  1
  N  N256  1  0.20838000  0.31906000  0.67593000  1
  N  N257  1  0.89400000  0.88932000  0.81536000  1
  N  N258  1  0.50508000  0.49729000  0.72509000  1
  N  N259  1  0.55050000  0.70745000  0.73105000  1
  O  O260  1  0.49598000  0.03380000  0.90010000  1
  O  O261  1  0.47010000  0.28404000  0.91796000  1
  O  O262  1  0.45441000  0.97706000  0.67255000  1
  O  O263  1  0.56961000  0.22340000  0.66347000  1
  O  O264  1  0.50293000  0.53382000  0.10012000  1
  O  O265  1  0.52986000  0.78745000  0.08175000  1
  O  O266  1  0.55273000  0.47707000  0.32732000  1
  O  O267  1  0.43097000  0.72375000  0.33523000  1
  O  O268  1  0.50970000  0.03367000  0.39980000  1
  O  O269  1  0.53029000  0.28408000  0.41779000  1
  O  O270  1  0.54553000  0.97713000  0.17277000  1
  O  O271  1  0.43107000  0.22355000  0.16342000  1
  O  O272  1  0.49820000  0.53389000  0.60017000  1
  O  O273  1  0.47725000  0.78391000  0.58256000  1
  O  O274  1  0.44733000  0.47719000  0.82730000  1
  O  O275  1  0.56913000  0.72574000  0.83669000  1
