# generated using pymatgen
data_Zn2H14C21N2O9
_symmetry_space_group_name_H-M   'P 1'
_cell_length_a   7.82239000
_cell_length_b   8.58948000
_cell_length_c   12.10999000
_cell_angle_alpha   92.37120000
_cell_angle_beta   101.16739000
_cell_angle_gamma   94.13849000
_symmetry_Int_Tables_number   1
_chemical_formula_structural   Zn2H14C21N2O9
_chemical_formula_sum   'Zn2 H14 C21 N2 O9'
_cell_volume   794.91066877
_cell_formula_units_Z   1
loop_
 _symmetry_equiv_pos_site_id
 _symmetry_equiv_pos_as_xyz
  1  'x, y, z'
loop_
 _atom_site_type_symbol
 _atom_site_label
 _atom_site_symmetry_multiplicity
 _atom_site_fract_x
 _atom_site_fract_y
 _atom_site_fract_z
 _atom_site_occupancy
  Zn  Zn0  1  0.81358000  0.51853000  0.51247000  1
  Zn  Zn1  1  0.18642000  0.48147000  0.48753000  1
  H  H2  1  0.02624000  0.30136000  0.14380000  1
  H  H3  1  0.30741000  0.26202000  0.74111000  1
  H  H4  1  0.19468000  0.01024000  0.49737000  1
  H  H5  1  0.74654000  0.89849000  0.30322000  1
  H  H6  1  0.66807000  0.09147000  0.32131000  1
  H  H7  1  0.53853000  0.91784000  0.34150000  1
  H  H8  1  0.46992000  0.37504000  0.41653000  1
  H  H9  1  0.53009000  0.62497000  0.58345000  1
  H  H10  1  0.59461000  0.17845000  0.81312000  1
  H  H11  1  0.86642000  0.20157000  0.95620000  1
  H  H12  1  0.62774000  0.60687000  0.17204000  1
  H  H13  1  0.95388000  0.64692000  0.86401000  1
  H  H14  1  0.35538000  0.60090000  0.14694000  1
  H  H15  1  0.07677000  0.69356000  0.06586000  1
  C  C16  1  0.04241000  0.79431000  0.49383000  1
  C  C17  1  0.15890000  0.50408000  0.83208000  1
  C  C18  1  0.06179000  0.95776000  0.48940000  1
  C  C19  1  0.10596000  0.50370000  0.71032000  1
  C  C20  1  0.92151000  0.04203000  0.48378000  1
  C  C21  1  0.95339000  0.20549000  0.49842000  1
  C  C22  1  0.89238000  0.48828000  0.28970000  1
  C  C23  1  0.80992000  0.28713000  0.00355000  1
  C  C24  1  0.82982000  0.45659000  0.17020000  1
  C  C25  1  0.07286000  0.59484000  0.89973000  1
  C  C26  1  0.14400000  0.62487000  0.01335000  1
  C  C27  1  0.39581000  0.48361000  0.99013000  1
  C  C28  1  0.30587000  0.57291000  0.05830000  1
  C  C29  1  0.67442000  0.97204000  0.35349000  1
  C  C30  1  0.31020000  0.43331000  0.88018000  1
  C  C31  1  0.56828000  0.44320000  0.02712000  1
  C  C32  1  0.64123000  0.33233000  0.96328000  1
  C  C33  1  0.54341000  0.26648000  0.86161000  1
  C  C34  1  0.37977000  0.31663000  0.82014000  1
  C  C35  1  0.67146000  0.51288000  0.12529000  1
  C  C36  1  0.90264000  0.34635000  0.10869000  1
  N  N37  1  0.43480000  0.45669000  0.47085000  1
  N  N38  1  0.56520000  0.54331000  0.52915000  1
  O  O39  1  0.89306000  0.73888000  0.50715000  1
  O  O40  1  0.17225000  0.71113000  0.48847000  1
  O  O41  1  0.94470000  0.52073000  0.66760000  1
  O  O42  1  0.22389000  0.49298000  0.64892000  1
  O  O43  1  0.82775000  0.28887000  0.51153000  1
  O  O44  1  0.10694000  0.26112000  0.49285000  1
  O  O45  1  0.77611000  0.50702000  0.35108000  1
  O  O46  1  0.05530000  0.47927000  0.33240000  1
  O  O47  1  0.75001000  0.97755000  0.46936000  1
