# generated using pymatgen
data_CdH11C19NO4
_symmetry_space_group_name_H-M   'P 1'
_cell_length_a   10.74679000
_cell_length_b   12.56052000
_cell_length_c   12.56240000
_cell_angle_alpha   92.13689000
_cell_angle_beta   92.96542000
_cell_angle_gamma   92.92841000
_symmetry_Int_Tables_number   1
_chemical_formula_structural   CdH11C19NO4
_chemical_formula_sum   'Cd4 H44 C76 N4 O16'
_cell_volume   1689.90087033
_cell_formula_units_Z   4
loop_
 _symmetry_equiv_pos_site_id
 _symmetry_equiv_pos_as_xyz
  1  'x, y, z'
loop_
 _atom_site_type_symbol
 _atom_site_label
 _atom_site_symmetry_multiplicity
 _atom_site_fract_x
 _atom_site_fract_y
 _atom_site_fract_z
 _atom_site_occupancy
  Cd  Cd1  1  0.75027000  0.14121000  0.85895000  1.0
  Cd  Cd2  1  0.50000000  0.00000000  0.00000000  1.0
  Cd  Cd3  1  0.24974000  0.85879000  0.14106000  1.0
  Cd  Cd4  1  0.00000000  0.00000000  0.00000000  1.0
  H  H1  1  0.00385000  0.17034000  0.42555000  1.0
  H  H2  1  0.01607000  0.09754000  0.75846000  1.0
  H  H3  1  0.51907000  0.70023000  0.67591000  1.0
  H  H4  1  0.48421000  0.24170000  0.90251000  1.0
  H  H5  1  0.66241000  0.41137000  0.11145000  1.0
  H  H6  1  0.12870000  0.89195000  0.69824000  1.0
  H  H7  1  0.31679000  0.81746000  0.38447000  1.0
  H  H8  1  0.45651000  0.77613000  0.85086000  1.0
  H  H9  1  0.02319000  0.56391000  0.07897000  1.0
  H  H10  1  0.01904000  0.67586000  0.70023000  1.0
  H  H11  1  0.54349000  0.22387000  0.14914000  1.0
  H  H12  1  0.95642000  0.85084000  0.77613000  1.0
  H  H13  1  0.62881000  0.69828000  0.89193000  1.0
  H  H14  1  0.97682000  0.43609000  0.92103000  1.0
  H  H15  1  0.51579000  0.75830000  0.09750000  1.0
  H  H16  1  0.87130000  0.10805000  0.30177000  1.0
  H  H17  1  0.88633000  0.39789000  0.09221000  1.0
  H  H18  1  0.33760000  0.58862000  0.88855000  1.0
  H  H19  1  0.50374000  0.42540000  0.17040000  1.0
  H  H20  1  0.61377000  0.90781000  0.60207000  1.0
  H  H21  1  0.49626000  0.57460000  0.82961000  1.0
  H  H22  1  0.68321000  0.18254000  0.61553000  1.0
  H  H23  1  0.38364000  0.71847000  0.51252000  1.0
  H  H24  1  0.38623000  0.09219000  0.39793000  1.0
  H  H25  1  0.98096000  0.32414000  0.29978000  1.0
  H  H26  1  0.61637000  0.28153000  0.48749000  1.0
  H  H27  1  0.88370000  0.51247000  0.71847000  1.0
  H  H28  1  0.37119000  0.30172000  0.10807000  1.0
  H  H29  1  0.99615000  0.82966000  0.57446000  1.0
  H  H30  1  0.18305000  0.61559000  0.18252000  1.0
  H  H31  1  0.79015000  0.89180000  0.24337000  1.0
  H  H32  1  0.47657000  0.92101000  0.43615000  1.0
  H  H33  1  0.81695000  0.38441000  0.81748000  1.0
  H  H34  1  0.16235000  0.11142000  0.41160000  1.0
  H  H35  1  0.11367000  0.60210000  0.90780000  1.0
  H  H36  1  0.20985000  0.10820000  0.75664000  1.0
  H  H37  1  0.83765000  0.88858000  0.58841000  1.0
  H  H38  1  0.48093000  0.29977000  0.32410000  1.0
  H  H39  1  0.52343000  0.07899000  0.56386000  1.0
  H  H40  1  0.29073000  0.24352000  0.89177000  1.0
  H  H41  1  0.70927000  0.75647000  0.10824000  1.0
  H  H42  1  0.04358000  0.14916000  0.22388000  1.0
  H  H43  1  0.11630000  0.48753000  0.28153000  1.0
  H  H44  1  0.98393000  0.90246000  0.24154000  1.0
  C  C1  1  0.75454000  0.19381000  0.40711000  1.0
  C  C2  1  0.42430000  0.08965000  0.56829000  1.0
  C  C3  1  0.57570000  0.91034000  0.43172000  1.0
  C  C4  1  0.21160000  0.84663000  0.69231000  1.0
  C  C5  1  0.33209000  0.50441000  0.17503000  1.0
  C  C6  1  0.54173000  0.92066000  0.23427000  1.0
  C  C7  1  0.77967000  0.89154000  0.51528000  1.0
  C  C8  1  0.95982000  0.15925000  0.50046000  1.0
  C  C9  1  0.15240000  0.52377000  0.90284000  1.0
  C  C10  1  0.75475000  0.12341000  0.10927000  1.0
  C  C11  1  0.83292000  0.88515000  0.41511000  1.0
  C  C12  1  0.24555000  0.10566000  0.67705000  1.0
  C  C13  1  0.45967000  0.50033000  0.15927000  1.0
  C  C14  1  0.74527000  0.89078000  0.87656000  1.0
  C  C15  1  0.25473000  0.32303000  0.89434000  1.0
  C  C16  1  0.85657000  0.58846000  0.75182000  1.0
  C  C17  1  0.71441000  0.16615000  0.21465000  1.0
  C  C18  1  0.71168000  0.69234000  0.84662000  1.0
  C  C19  1  0.95826000  0.76568000  0.07919000  1.0
  C  C20  1  0.12681000  0.33125000  0.90761000  1.0
  C  C21  1  0.66693000  0.58474000  0.11487000  1.0
  C  C22  1  0.04018000  0.84075000  0.49954000  1.0
  C  C23  1  0.03120000  0.87842000  0.31470000  1.0
  C  C24  1  0.78840000  0.15337000  0.30770000  1.0
  C  C25  1  0.65236000  0.90287000  0.52371000  1.0
  C  C26  1  0.22033000  0.10846000  0.48473000  1.0
  C  C27  1  0.60285000  0.21840000  0.22115000  1.0
  C  C28  1  0.43210000  0.74053000  0.68066000  1.0
  C  C29  1  0.25444000  0.40708000  0.19385000  1.0
  C  C30  1  0.14343000  0.41153000  0.24818000  1.0
  C  C31  1  0.93210000  0.68063000  0.74051000  1.0
  C  C32  1  0.27972000  0.51544000  0.89151000  1.0
  C  C33  1  0.46856000  0.68516000  0.12154000  1.0
  C  C34  1  0.35652000  0.75186000  0.58848000  1.0
  C  C35  1  0.34764000  0.09712000  0.47629000  1.0
  C  C36  1  0.71924000  0.39540000  0.83099000  1.0
  C  C37  1  0.56790000  0.25947000  0.31935000  1.0
  C  C38  1  0.28076000  0.60460000  0.16901000  1.0
  C  C39  1  0.16776000  0.82500000  0.49553000  1.0
  C  C40  1  0.96880000  0.12158000  0.68530000  1.0
  C  C41  1  0.37344000  0.09246000  0.66871000  1.0
  C  C42  1  0.53161000  0.59041000  0.13133000  1.0
  C  C43  1  0.21906000  0.83098000  0.39536000  1.0
  C  C44  1  0.28832000  0.30766000  0.15338000  1.0
  C  C45  1  0.16708000  0.11484000  0.58490000  1.0
  C  C46  1  0.78094000  0.16902000  0.60464000  1.0
  C  C47  1  0.45827000  0.07934000  0.76574000  1.0
  C  C48  1  0.24525000  0.87658000  0.89074000  1.0
  C  C49  1  0.89712000  0.77883000  0.78159000  1.0
  C  C50  1  0.62656000  0.90754000  0.33130000  1.0
  C  C51  1  0.28559000  0.83385000  0.78536000  1.0
  C  C52  1  0.74556000  0.59292000  0.80616000  1.0
  C  C53  1  0.83224000  0.17500000  0.50447000  1.0
  C  C54  1  0.25474000  0.10922000  0.12344000  1.0
  C  C55  1  0.87319000  0.66875000  0.09239000  1.0
  C  C56  1  0.92408000  0.56829000  0.08965000  1.0
  C  C57  1  0.24546000  0.80619000  0.59289000  1.0
  C  C58  1  0.46839000  0.40958000  0.86868000  1.0
  C  C59  1  0.54033000  0.49967000  0.84073000  1.0
  C  C60  1  0.03179000  0.13133000  0.59058000  1.0
  C  C61  1  0.06790000  0.31937000  0.25950000  1.0
  C  C62  1  0.39715000  0.78159000  0.77886000  1.0
  C  C63  1  0.66791000  0.49559000  0.82497000  1.0
  C  C64  1  0.72028000  0.48456000  0.10849000  1.0
  C  C65  1  0.78563000  0.78537000  0.83386000  1.0
  C  C66  1  0.96821000  0.86867000  0.40942000  1.0
  C  C67  1  0.21438000  0.21463000  0.16615000  1.0
  C  C68  1  0.10288000  0.22116000  0.21842000  1.0
  C  C69  1  0.64348000  0.24814000  0.41152000  1.0
  C  C70  1  0.07592000  0.43171000  0.91036000  1.0
  C  C71  1  0.75445000  0.89434000  0.32296000  1.0
  C  C72  1  0.53144000  0.31484000  0.87846000  1.0
  C  C73  1  0.04174000  0.23432000  0.92081000  1.0
  C  C74  1  0.33308000  0.41526000  0.88513000  1.0
  C  C75  1  0.74528000  0.67697000  0.10566000  1.0
  C  C76  1  0.84760000  0.47623000  0.09716000  1.0
  N  N1  1  0.15224000  0.85710000  0.30772000  1.0
  N  N2  1  0.34754000  0.69221000  0.14284000  1.0
  N  N3  1  0.84777000  0.14290000  0.69228000  1.0
  N  N4  1  0.65246000  0.30779000  0.85717000  1.0
  O  O1  1  0.82443000  0.97179000  0.87234000  1.0
  O  O2  1  0.59325000  0.92974000  0.14507000  1.0
  O  O3  1  0.86316000  0.09021000  0.10657000  1.0
  O  O4  1  0.42557000  0.92103000  0.24817000  1.0
  O  O5  1  0.07438000  0.75154000  0.07882000  1.0
  O  O6  1  0.90699000  0.85505000  0.07026000  1.0
  O  O7  1  0.92562000  0.24845000  0.92118000  1.0
  O  O8  1  0.36306000  0.10649000  0.09020000  1.0
  O  O9  1  0.40675000  0.07026000  0.85493000  1.0
  O  O10  1  0.63695000  0.89351000  0.90980000  1.0
  O  O11  1  0.57443000  0.07897000  0.75184000  1.0
  O  O12  1  0.17557000  0.02821000  0.12766000  1.0
  O  O13  1  0.13685000  0.90979000  0.89344000  1.0
  O  O14  1  0.32438000  0.87240000  0.97180000  1.0
  O  O15  1  0.67562000  0.12760000  0.02820000  1.0
  O  O16  1  0.09301000  0.14495000  0.92974000  1.0
