# generated using pymatgen
data_H58C95N4
_symmetry_space_group_name_H-M   'P 1'
_cell_length_a   15.53955570
_cell_length_b   15.53954127
_cell_length_c   57.08140000
_cell_angle_alpha   90.00000000
_cell_angle_beta   90.00000000
_cell_angle_gamma   120.00009218
_symmetry_Int_Tables_number   1
_chemical_formula_structural   H58C95N4
_chemical_formula_sum   'H174 C285 N12'
_cell_volume   11937.17707383
_cell_formula_units_Z   3
loop_
 _symmetry_equiv_pos_site_id
 _symmetry_equiv_pos_as_xyz
  1  'x, y, z'
loop_
 _atom_site_type_symbol
 _atom_site_label
 _atom_site_symmetry_multiplicity
 _atom_site_fract_x
 _atom_site_fract_y
 _atom_site_fract_z
 _atom_site_occupancy
  C  1  1  0.92073950  0.98408950  0.98786500  1
  C  2  1  0.93223500  0.00649700  0.96354600  1
  C  3  1  0.09139150  0.00442050  0.96350500  1
  C  4  1  0.10249250  0.02586650  0.98786900  1
  C  5  1  0.20119700  0.06885500  0.99687900  1
  C  6  1  0.28154850  0.07997350  0.98274800  1
  C  7  1  0.25998800  0.03585500  0.96023800  1
  C  8  1  0.16628700  0.00088000  0.95042700  1
  C  9  1  0.85725500  0.00984900  0.95045000  1
  C  10  1  0.76337057  0.97432543  0.96019800  1
  C  11  1  0.74182857  0.92974743  0.98263400  1
  C  12  1  0.82193100  0.94073100  0.99683700  1
  C  13  1  0.99070000  0.91391600  0.01711400  1
  C  14  1  0.01288300  0.92515300  0.04143900  1
  C  15  1  0.01012600  0.08400900  0.04151400  1
  C  16  1  0.03243500  0.09563300  0.01719100  1
  C  17  1  0.00691900  0.15893400  0.05466600  1
  C  18  1  0.04234900  0.25284900  0.04495100  1
  C  19  1  0.08684400  0.27454900  0.02250300  1
  C  20  1  0.07590100  0.19453200  0.00827300  1
  C  21  1  0.94740200  0.81516400  0.00811700  1
  C  22  1  0.93627600  0.73482000  0.02225500  1
  C  23  1  0.98112450  0.75646050  0.04468500  1
  C  24  1  0.01659350  0.85026750  0.05447900  1
  C  37  1  0.01157650  0.00487350  0.00250800  1
  C  38  1  0.01145950  0.00446850  0.05514000  1
  C  41  1  0.01177500  0.00547900  0.94986200  1
  C  44  1  0.03217700  0.93462300  0.65458000  1
  C  45  1  0.01028700  0.92404700  0.63023400  1
  C  46  1  0.01210500  0.08517100  0.63024400  1
  C  47  1  0.99064300  0.07479400  0.65460900  1
  C  48  1  0.94787400  0.13069100  0.66363900  1
  C  49  1  0.93740350  0.20030350  0.64951100  1
  C  50  1  0.98187800  0.22328100  0.62705600  1
  C  51  1  0.01569700  0.16368000  0.61718000  1
  C  52  1  0.00692600  0.84570600  0.61715100  1
  C  53  1  0.04256650  0.78745750  0.62690500  1
  C  54  1  0.08694350  0.81023850  0.64936900  1
  C  55  1  0.07548850  0.87913750  0.66355800  1
  C  56  1  0.10236550  0.07456350  0.68385700  1
  C  57  1  0.09116850  0.08517250  0.70820500  1
  C  58  1  0.93172100  0.92431000  0.70823100  1
  C  59  1  0.92045950  0.93483050  0.68388000  1
  C  60  1  0.85651400  0.84622600  0.72133000  1
  C  61  1  0.76272643  0.78781137  0.71154900  1
  C  62  1  0.74125743  0.81066637  0.68907800  1
  C  63  1  0.82168300  0.87940700  0.67488200  1
  C  64  1  0.20109650  0.13007750  0.67484500  1
  C  65  1  0.28131200  0.19950500  0.68897100  1
  C  66  1  0.25996100  0.22228400  0.71146200  1
  C  67  1  0.16637050  0.16329450  0.72130000  1
  C  80  1  0.01138800  0.00466000  0.66923100  1
  C  81  1  0.01177950  0.00446650  0.72188700  1
  C  84  1  0.01048450  0.00426450  0.61658500  1
  C  87  1  0.08142550  0.09548250  0.32126200  1
  C  88  1  0.09215050  0.08406450  0.29692700  1
  C  89  1  0.93091000  0.92492600  0.29693400  1
  C  90  1  0.94134450  0.91377750  0.32129000  1
  C  91  1  0.88555850  0.81509950  0.33031300  1
  C  92  1  0.81610493  0.73496687  0.31617100  1
  C  93  1  0.79320493  0.75636087  0.29369500  1
  C  94  1  0.85278600  0.84980400  0.28382600  1
  C  95  1  0.17071450  0.15895050  0.28387200  1
  C  96  1  0.22991550  0.25260250  0.29367500  1
  C  97  1  0.20635500  0.27426400  0.31603800  1
  C  98  1  0.13704150  0.19427050  0.33023900  1
  C  99  1  0.94136150  0.02568450  0.35052900  1
  C  100  1  0.93044550  0.00349850  0.37485800  1
  C  101  1  0.09161200  0.00548700  0.37493500  1
  C  102  1  0.08124450  0.98375750  0.35058200  1
  C  103  1  0.16992750  0.00883150  0.38804100  1
  C  104  1  0.22913950  0.97438450  0.37824200  1
  C  105  1  0.20594950  0.92963050  0.35582700  1
  C  106  1  0.13684850  0.94056750  0.34161100  1
  C  107  1  0.88597400  0.06904200  0.34151900  1
  C  108  1  0.81686157  0.08017343  0.35568500  1
  C  109  1  0.79375957  0.03568843  0.37813600  1
  C  110  1  0.85202500  0.00011200  0.38792500  1
  C  123  1  0.01134900  0.00469300  0.33591500  1
  C  124  1  0.01103950  0.00467850  0.38856600  1
  C  127  1  0.01203300  0.00399700  0.28326800  1
  C  130  1  0.53716247  0.05630343  0.24283200  1
  C  131  1  0.48542297  0.95396893  0.24283100  1
  C  132  1  0.46806497  0.92113093  0.21959400  1
  C  134  1  0.55464750  0.08915250  0.21959700  1
  C  135  1  0.60677350  0.19087850  0.21263200  1
  C  136  1  0.62180250  0.22384350  0.18895500  1
  C  138  1  0.61933700  0.22384900  0.14956800  1
  C  139  1  0.66884300  0.32250700  0.15715300  1
  C  140  1  0.67097150  0.32250250  0.18137100  1
  C  141  1  0.60137100  0.19088700  0.12589200  1
  C  142  1  0.55182000  0.08916600  0.11892300  1
  C  144  1  0.47072647  0.92115443  0.11891900  1
  C  145  1  0.48591747  0.95400243  0.09568400  1
  C  146  1  0.53628147  0.05633243  0.09568600  1
  C  147  1  0.42135497  0.81943393  0.12588500  1
  C  148  1  0.40351547  0.78646243  0.14956100  1
  C  150  1  0.40110647  0.78645043  0.18895000  1
  C  151  1  0.35207597  0.68779395  0.18136400  1
  C  152  1  0.35422947  0.68780045  0.15714600  1
  C  153  1  0.41609297  0.81940693  0.21262600  1
  C  154  1  0.37964897  0.74617093  0.23083400  1
  C  155  1  0.29687497  0.72872995  0.24462100  1
  C  156  1  0.26893850  0.66578750  0.26434000  1
  C  157  1  0.32214350  0.61751450  0.27102400  1
  C  158  1  0.40395497  0.63436695  0.25673200  1
  C  159  1  0.43298047  0.69822743  0.23720900  1
  C  160  1  0.29071000  0.54822300  0.29025400  1
  C  161  1  0.35982900  0.53564500  0.30393600  1
  C  162  1  0.32943900  0.45037000  0.31788300  1
  C  163  1  0.22849200  0.37449100  0.31874000  1
  C  164  1  0.15799600  0.39551400  0.30840500  1
  C  165  1  0.18862400  0.47989100  0.29412400  1
  C  166  1  0.38470547  0.74620243  0.10767500  1
  C  167  1  0.28337800  0.69788100  0.10133300  1
  C  168  1  0.24864850  0.63397950  0.08181700  1
  C  169  1  0.31375700  0.61748000  0.06749500  1
  C  170  1  0.41530597  0.66620093  0.07413100  1
  C  171  1  0.45020147  0.72912943  0.09385500  1
  C  172  1  0.27610950  0.54828250  0.04824100  1
  C  173  1  0.19407450  0.53524450  0.03461800  1
  C  174  1  0.13942400  0.45004100  0.02063200  1
  C  175  1  0.16529000  0.37469300  0.01978500  1
  C  176  1  0.25704900  0.39603400  0.02998100  1
  C  177  1  0.31027500  0.48028300  0.04432400  1
  C  178  1  0.63807050  0.26411350  0.10768200  1
  C  179  1  0.73930295  0.31208890  0.10127400  1
  C  180  1  0.77398143  0.37590637  0.08174100  1
  C  181  1  0.70889993  0.39268187  0.06747800  1
  C  182  1  0.60748050  0.34447350  0.07421500  1
  C  183  1  0.57262600  0.28156400  0.09394200  1
  C  184  1  0.74653493  0.46182287  0.04821600  1
  C  185  1  0.71280893  0.53021087  0.04436100  1
  C  186  1  0.76634743  0.61442637  0.03002300  1
  C  187  1  0.85742043  0.63475537  0.01962200  1
  C  188  1  0.88284743  0.55915637  0.02046000  1
  C  189  1  0.82797043  0.47403537  0.03446500  1
  C  190  1  0.64318700  0.26409700  0.23084600  1
  C  191  1  0.72591145  0.28144040  0.24464000  1
  C  192  1  0.58993100  0.31213900  0.23720200  1
  C  193  1  0.61894945  0.37596740  0.25673000  1
  C  194  1  0.70065743  0.39266837  0.27103900  1
  C  195  1  0.75382293  0.34433887  0.26436600  1
  C  196  1  0.73190243  0.46164137  0.29033600  1
  C  197  1  0.83395893  0.52991287  0.29427100  1
  C  198  1  0.86468043  0.61390537  0.30870000  1
  C  199  1  0.79381143  0.63464437  0.31894800  1
  C  200  1  0.69284543  0.55893437  0.31807400  1
  C  201  1  0.66263493  0.47395687  0.30402900  1
  C  244  1  0.96016157  0.47906233  0.90944200  1
  C  245  1  0.06249557  0.52962333  0.90944200  1
  C  246  1  0.09534150  0.54512250  0.88620700  1
  C  248  1  0.92732557  0.46377833  0.88620500  1
  C  249  1  0.82560157  0.41420333  0.87924000  1
  C  250  1  0.79264757  0.39627433  0.85556100  1
  C  252  1  0.79266857  0.39379033  0.81617300  1
  C  253  1  0.69400757  0.34465935  0.82375600  1
  C  254  1  0.69399507  0.34687685  0.84797200  1
  C  255  1  0.82564357  0.40877633  0.79249700  1
  C  256  1  0.92737057  0.46088933  0.78553100  1
  C  258  1  0.09538800  0.54769200  0.78553100  1
  C  259  1  0.06255257  0.53003733  0.76229600  1
  C  260  1  0.96021757  0.47814233  0.76229600  1
  C  261  1  0.19711600  0.59998400  0.79249700  1
  C  262  1  0.23006750  0.61515250  0.81617500  1
  C  264  1  0.23004350  0.61279450  0.85556500  1
  C  265  1  0.32870650  0.66243950  0.84798200  1
  C  266  1  0.32871850  0.66452750  0.82376400  1
  C  267  1  0.19707050  0.59483350  0.87924100  1
  C  268  1  0.27028850  0.63165250  0.89745400  1
  C  269  1  0.28768705  0.56628695  0.91123900  1
  C  270  1  0.35054057  0.60126043  0.93097400  1
  C  271  1  0.39888900  0.70275580  0.93764900  1
  C  272  1  0.38219866  0.76774314  0.92333800  1
  C  273  1  0.31833145  0.73294640  0.90381500  1
  C  274  1  0.46806050  0.74051930  0.95690800  1
  C  275  1  0.48062550  0.82225630  0.97057100  1
  C  276  1  0.56584450  0.87706530  0.98453800  1
  C  277  1  0.64158800  0.85181180  0.98543400  1
  C  278  1  0.62034100  0.76000680  0.97522500  1
  C  279  1  0.53616250  0.70654830  0.96086000  1
  C  280  1  0.27036000  0.63656400  0.77428600  1
  C  281  1  0.31884155  0.58369045  0.76796900  1
  C  282  1  0.38277102  0.61290483  0.74845600  1
  C  283  1  0.39910750  0.69439830  0.73411000  1
  C  284  1  0.35029343  0.74714837  0.74073600  1
  C  285  1  0.28736689  0.71908929  0.76046200  1
  C  286  1  0.46818500  0.72589880  0.71482700  1
  C  287  1  0.48097600  0.65677680  0.70118100  1
  C  288  1  0.56573000  0.68718680  0.68702400  1
  C  289  1  0.64096850  0.78832430  0.68616100  1
  C  290  1  0.62009550  0.85894030  0.69644600  1
  C  291  1  0.53602850  0.82805030  0.71084700  1
  C  292  1  0.75241557  0.37225533  0.77428400  1
  C  293  1  0.70439747  0.42550243  0.76790400  1
  C  294  1  0.64055797  0.39640495  0.74837500  1
  C  295  1  0.62380450  0.31460850  0.73409100  1
  C  296  1  0.67209810  0.26144590  0.74079500  1
  C  297  1  0.73499457  0.28942535  0.76052500  1
  C  298  1  0.55470550  0.28322850  0.71481500  1
  C  299  1  0.48650850  0.18117250  0.71088200  1
  C  300  1  0.40254500  0.15035900  0.69644300  1
  C  301  1  0.38137800  0.22104700  0.68629600  1
  C  302  1  0.45725300  0.32207900  0.68706100  1
  C  303  1  0.54227200  0.35238000  0.70111100  1
  C  304  1  0.75236207  0.37749283  0.89744900  1
  C  305  1  0.73526557  0.44296733  0.91127500  1
  C  306  1  0.70407960  0.27617140  0.90378900  1
  C  307  1  0.64024060  0.24142140  0.92331700  1
  C  308  1  0.62379900  0.30652600  0.93765400  1
  C  309  1  0.67240547  0.40805743  0.93101000  1
  C  310  1  0.55475050  0.26886750  0.95693700  1
  C  311  1  0.48661500  0.30287200  0.96085300  1
  C  312  1  0.40268750  0.24994850  0.97532000  1
  C  313  1  0.38175400  0.15834300  0.98551800  1
  C  314  1  0.45692950  0.13233450  0.98460100  1
  C  315  1  0.54207150  0.18703750  0.97059700  1
  C  358  1  0.53634310  0.47848690  0.57618800  1
  C  359  1  0.48578160  0.53026040  0.57618400  1
  C  360  1  0.47065360  0.54796240  0.55294700  1
  C  362  1  0.55202100  0.46130300  0.55295400  1
  C  363  1  0.60176750  0.40931850  0.54599100  1
  C  364  1  0.61984450  0.39440350  0.52231800  1
  C  366  1  0.62238500  0.39689700  0.48293000  1
  C  367  1  0.67167150  0.34753550  0.49052100  1
  C  368  1  0.66945750  0.34534850  0.51473900  1
  C  369  1  0.60737850  0.41482550  0.45925100  1
  C  370  1  0.55518350  0.46434450  0.45227900  1
  C  372  1  0.46832110  0.54549490  0.45227000  1
  C  373  1  0.48581410  0.53012590  0.42903700  1
  C  374  1  0.53773210  0.47971090  0.42904200  1
  C  375  1  0.41610510  0.59500490  0.45923400  1
  C  376  1  0.40100560  0.61290040  0.48290900  1
  C  378  1  0.40331710  0.61527490  0.52229800  1
  C  379  1  0.35392110  0.66452390  0.51470400  1
  C  380  1  0.35186810  0.66243390  0.49048600  1
  C  381  1  0.42114410  0.60017490  0.54598000  1
  C  382  1  0.38437460  0.63666240  0.56418900  1
  C  383  1  0.44985410  0.71909790  0.57804800  1
  C  384  1  0.41489110  0.74704390  0.59777500  1
  C  385  1  0.31329550  0.69428350  0.60437100  1
  C  386  1  0.24818950  0.61290550  0.58999100  1
  C  387  1  0.28298550  0.58380050  0.57047300  1
  C  388  1  0.27563750  0.72566850  0.62365700  1
  C  389  1  0.19363450  0.65654650  0.63727800  1
  C  390  1  0.13902050  0.68697750  0.65132600  1
  C  391  1  0.16515850  0.78823150  0.65221300  1
  C  392  1  0.25687350  0.85884350  0.64204300  1
  C  393  1  0.30987050  0.82780950  0.62762700  1
  C  394  1  0.37964960  0.63176040  0.44101800  1
  C  395  1  0.43287510  0.73302890  0.43464400  1
  C  396  1  0.40374660  0.76778240  0.41512300  1
  C  397  1  0.32195550  0.70275050  0.40083800  1
  C  398  1  0.26879250  0.60128750  0.40754100  1
  C  399  1  0.29681460  0.56635340  0.42726000  1
  C  400  1  0.29051750  0.74046150  0.38157600  1
  C  401  1  0.35960150  0.82213650  0.36788700  1
  C  402  1  0.32919400  0.87685300  0.35388600  1
  C  403  1  0.22819400  0.85164300  0.35305900  1
  C  404  1  0.15757750  0.75983050  0.36326200  1
  C  405  1  0.18843750  0.70659650  0.37767000  1
  C  406  1  0.64395550  0.37814350  0.44104800  1
  C  407  1  0.59064350  0.27691050  0.43463400  1
  C  408  1  0.61977550  0.24219250  0.41510700  1
  C  409  1  0.70168557  0.30723443  0.40085600  1
  C  410  1  0.75486907  0.40866793  0.40757300  1
  C  411  1  0.72682955  0.44355645  0.42729900  1
  C  412  1  0.73308357  0.26961143  0.38156800  1
  C  413  1  0.83514607  0.30323893  0.37768400  1
  C  414  1  0.86580507  0.24982493  0.36328700  1
  C  415  1  0.79491907  0.15845893  0.35294500  1
  C  416  1  0.69402307  0.13346893  0.35375100  1
  C  417  1  0.66386257  0.18817843  0.36782900  1
  C  418  1  0.63858350  0.37291650  0.56420500  1
  C  419  1  0.57325450  0.29008150  0.57797700  1
  C  420  1  0.73983605  0.42628695  0.57059200  1
  C  421  1  0.77465757  0.39725843  0.59011700  1
  C  422  1  0.70970057  0.31544943  0.60440700  1
  C  423  1  0.60824550  0.26217350  0.59770500  1
  C  424  1  0.74750957  0.28403943  0.62365500  1
  C  425  1  0.71368707  0.18197693  0.62758100  1
  C  426  1  0.76707757  0.15122443  0.64195900  1
  C  427  1  0.85888307  0.22188093  0.65213400  1
  C  428  1  0.88405707  0.32289293  0.65129500  1
  C  429  1  0.82915657  0.35323243  0.63733800  1
  H  25  1  0.97118450  0.70042750  0.05582700  1
  H  26  1  0.03138650  0.85865550  0.07208900  1
  H  27  1  0.99159400  0.14998600  0.07225100  1
  H  28  1  0.05204400  0.30873100  0.05612100  1
  H  29  1  0.10645700  0.20966900  0.99187000  1
  H  30  1  0.91645300  0.80021300  0.99175800  1
  H  31  1  0.21604750  0.09901950  0.01332200  1
  H  32  1  0.31604200  0.04586100  0.94909400  1
  H  33  1  0.15795750  0.98644250  0.93280300  1
  H  34  1  0.80687500  0.91006700  0.01322800  1
  H  35  1  0.86588350  0.02509450  0.93286100  1
  H  36  1  0.70742557  0.96473243  0.94906300  1
  H  39  1  0.94543800  0.97004100  0.06635500  1
  H  40  1  0.07742600  0.03870500  0.06637600  1
  H  42  1  0.04591300  0.07149300  0.93864200  1
  H  43  1  0.97761650  0.93949750  0.93863000  1
  H  68  1  0.31587350  0.26847350  0.72262600  1
  H  69  1  0.15782050  0.16986450  0.73889800  1
  H  70  1  0.86518450  0.83946950  0.73891400  1
  H  71  1  0.70669293  0.74156887  0.72267700  1
  H  72  1  0.80682250  0.89499950  0.65847100  1
  H  73  1  0.21599100  0.11461600  0.65842100  1
  H  74  1  0.91731800  0.11510700  0.68004100  1
  H  75  1  0.97204150  0.26925850  0.61584900  1
  H  76  1  0.03052700  0.16993100  0.59957000  1
  H  77  1  0.10593650  0.89464950  0.67997100  1
  H  78  1  0.99177500  0.83912500  0.59955600  1
  H  79  1  0.05235000  0.74126000  0.61576000  1
  H  82  1  0.04595600  0.97218300  0.73296100  1
  H  83  1  0.97809100  0.03633100  0.73326200  1
  H  85  1  0.94395450  0.97209750  0.60553600  1
  H  86  1  0.07594150  0.03592050  0.60518300  1
  H  111  1  0.74767357  0.04554043  0.38930600  1
  H  112  1  0.84563650  0.98532950  0.40553500  1
  H  113  1  0.17626500  0.02396200  0.40563500  1
  H  114  1  0.27497350  0.96442150  0.38946900  1
  H  115  1  0.12133950  0.91001750  0.32520600  1
  H  116  1  0.90180200  0.09981000  0.32514100  1
  H  117  1  0.90088050  0.80015850  0.34674500  1
  H  118  1  0.74728743  0.70048837  0.28249500  1
  H  119  1  0.84644800  0.85830800  0.26621550  1
  H  120  1  0.12119250  0.20940250  0.34659600  1
  H  121  1  0.17757000  0.15012400  0.26630100  1
  H  122  1  0.27599200  0.30833700  0.28246500  1
  H  125  1  0.04292400  0.07081900  0.39974500  1
  H  126  1  0.97917300  0.93881700  0.39983800  1
  H  128  1  0.04426900  0.96946900  0.27229700  1
  H  129  1  0.98057900  0.03776400  0.27179100  1
  H  202  1  0.63925043  0.57365237  0.32395300  1
  H  203  1  0.58802795  0.42674590  0.30190900  1
  H  204  1  0.93748300  0.66921500  0.30745900  1
  H  205  1  0.88707993  0.52722487  0.28421900  1
  H  206  1  0.81274243  0.35287437  0.27415100  1
  H  207  1  0.76465645  0.24589940  0.24079800  1
  H  208  1  0.57973150  0.41130050  0.26016200  1
  H  209  1  0.52893600  0.30026400  0.22775000  1
  H  210  1  0.55811500  0.09850100  0.25771100  1
  H  211  1  0.46446347  0.91176043  0.25770800  1
  H  212  1  0.51151297  0.00514693  0.18960500  1
  H  213  1  0.51155797  0.00515893  0.14891100  1
  H  214  1  0.70311043  0.38492937  0.19156300  1
  H  215  1  0.69913643  0.38493137  0.14696100  1
  H  216  1  0.78847143  0.30013537  0.11068100  1
  H  217  1  0.84850293  0.41120887  0.07827800  1
  H  218  1  0.49836400  0.24603200  0.09781200  1
  H  219  1  0.55704500  0.35307100  0.06447000  1
  H  220  1  0.55733400  0.09854400  0.08080900  1
  H  221  1  0.46463597  0.91179193  0.08080700  1
  H  222  1  0.32005800  0.62536300  0.19155500  1
  H  223  1  0.32396050  0.62537550  0.14695400  1
  H  224  1  0.23415650  0.70956650  0.11079400  1
  H  225  1  0.17406350  0.59838350  0.07841600  1
  H  226  1  0.52451697  0.76493193  0.09767100  1
  H  227  1  0.46577647  0.65783843  0.06434100  1
  H  228  1  0.36652700  0.48363500  0.05431700  1
  H  229  1  0.27489500  0.34095800  0.03116500  1
  H  230  1  0.07102000  0.43504800  0.01474800  1
  H  231  1  0.16638750  0.58223650  0.03669400  1
  H  232  1  0.49404497  0.71019493  0.22777500  1
  H  233  1  0.44318347  0.59904145  0.26015800  1
  H  234  1  0.13553600  0.48276500  0.28410000  1
  H  235  1  0.08503000  0.34050600  0.30719500  1
  H  236  1  0.38308550  0.43590950  0.32386400  1
  H  237  1  0.43447547  0.58296045  0.30191600  1
  H  238  1  0.20988700  0.65708100  0.27409500  1
  H  239  1  0.25805897  0.76418895  0.24076900  1
  H  240  1  0.65708543  0.52753037  0.05444300  1
  H  241  1  0.74878993  0.66972987  0.03118500  1
  H  242  1  0.85537043  0.42679937  0.03652700  1
  H  243  1  0.95087043  0.57340537  0.01445900  1
  H  316  1  0.44224750  0.06404250  0.99050000  1
  H  317  1  0.58912760  0.15945740  0.96847200  1
  H  318  1  0.34768700  0.26788100  0.97406700  1
  H  319  1  0.48986250  0.35909650  0.95086400  1
  H  320  1  0.66411247  0.45852443  0.94082000  1
  H  321  1  0.77105657  0.51728833  0.90746600  1
  H  322  1  0.60473260  0.16685040  0.92673100  1
  H  323  1  0.71578360  0.22696440  0.89432500  1
  H  324  1  0.91796057  0.45777433  0.92431900  1
  H  325  1  0.10469550  0.55080450  0.92432100  1
  H  326  1  0.01134557  0.50464833  0.85621600  1
  H  327  1  0.01136857  0.50459533  0.81552200  1
  H  328  1  0.63156200  0.31658900  0.85816300  1
  H  329  1  0.63158200  0.31260900  0.81356100  1
  H  330  1  0.71632897  0.48658193  0.77732500  1
  H  331  1  0.60522347  0.43560945  0.74493300  1
  H  332  1  0.77054907  0.25070585  0.76438100  1
  H  333  1  0.66351760  0.20244840  0.73103700  1
  H  334  1  0.91801507  0.45701183  0.74741700  1
  H  335  1  0.10476350  0.55091650  0.74741900  1
  H  336  1  0.39112900  0.69290280  0.85817700  1
  H  337  1  0.39115300  0.69676680  0.81357500  1
  H  338  1  0.30725107  0.52284893  0.77744300  1
  H  339  1  0.41844407  0.57398893  0.74506300  1
  H  340  1  0.25147845  0.75754440  0.76426200  1
  H  341  1  0.35855943  0.80591437  0.73093200  1
  H  342  1  0.53277750  0.88099630  0.72084500  1
  H  343  1  0.67495657  0.93199943  0.69758800  1
  H  344  1  0.58074900  0.63360880  0.68129900  1
  H  345  1  0.43410102  0.58213683  0.70335600  1
  H  346  1  0.30644143  0.78206637  0.89436900  1
  H  347  1  0.41754143  0.84231437  0.92676300  1
  H  348  1  0.53325950  0.65053730  0.95084800  1
  H  349  1  0.67532143  0.74204037  0.97396000  1
  H  350  1  0.58046700  0.94529680  0.99046700  1
  H  351  1  0.43344898  0.84972882  0.96850500  1
  H  352  1  0.35905357  0.55086743  0.94075900  1
  H  353  1  0.25204755  0.49198245  0.90741900  1
  H  354  1  0.48947150  0.12807050  0.72088100  1
  H  355  1  0.34722100  0.07758600  0.69771800  1
  H  356  1  0.58930847  0.42702945  0.70322800  1
  H  357  1  0.44256150  0.37586950  0.68132400  1
  H  430  1  0.95222657  0.37669443  0.65721300  1
  H  431  1  0.85650257  0.42787143  0.63529300  1
  H  432  1  0.74964857  0.07846143  0.64068000  1
  H  433  1  0.65778607  0.12888193  0.61754800  1
  H  434  1  0.55787850  0.20316950  0.60746800  1
  H  435  1  0.49897850  0.25128150  0.57412800  1
  H  436  1  0.84920257  0.43652743  0.59355300  1
  H  437  1  0.78893807  0.48735093  0.56115900  1
  H  438  1  0.55738900  0.45734500  0.59106800  1
  H  439  1  0.46434760  0.55104040  0.59106000  1
  H  440  1  0.51178160  0.50504340  0.52296000  1
  H  441  1  0.51170310  0.50490290  0.48226600  1
  H  442  1  0.69985657  0.31332943  0.52493500  1
  H  443  1  0.70389307  0.31732093  0.48033400  1
  H  444  1  0.52950750  0.22776050  0.44404200  1
  H  445  1  0.58050950  0.16767450  0.41164000  1
  H  446  1  0.76558005  0.51781295  0.43116900  1
  H  447  1  0.81394957  0.45907243  0.39783400  1
  H  448  1  0.55881650  0.45856350  0.41416800  1
  H  449  1  0.46478410  0.55129390  0.41415800  1
  H  450  1  0.32364500  0.69669300  0.52488900  1
  H  451  1  0.31982650  0.69280450  0.48028800  1
  H  452  1  0.49395760  0.78216940  0.44406800  1
  H  453  1  0.44297660  0.84232140  0.41167700  1
  H  454  1  0.25810760  0.49206840  0.43110700  1
  H  455  1  0.20982250  0.55087150  0.39777600  1
  H  456  1  0.13538950  0.65070850  0.38771800  1
  H  457  1  0.08475400  0.74216200  0.36461100  1
  H  458  1  0.38273750  0.94518750  0.34800100  1
  H  459  1  0.43425760  0.84961540  0.36994200  1
  H  460  1  0.23377350  0.52301450  0.56097800  1
  H  461  1  0.17358100  0.57398500  0.59336300  1
  H  462  1  0.36626600  0.88080900  0.61768000  1
  H  463  1  0.27481200  0.93181400  0.64092400  1
  H  464  1  0.07034550  0.63356450  0.65705700  1
  H  465  1  0.16559450  0.58189350  0.63505700  1
  H  466  1  0.46536460  0.80569840  0.60761200  1
  H  467  1  0.52420810  0.75752890  0.57427100  1
  H  468  1  0.88816957  0.35873743  0.38781800  1
  H  469  1  0.93852050  0.26706450  0.36458300  1
  H  470  1  0.58924755  0.16100645  0.36987200  1
  H  471  1  0.64037757  0.06530843  0.34780500  1
  N  133  1  0.51139947  0.00514343  0.20643000  1
  N  137  1  0.59255300  0.16782700  0.16926200  1
  N  143  1  0.51135447  0.00515543  0.13208600  1
  N  149  1  0.43021897  0.84247493  0.16925600  1
  N  247  1  0.01134057  0.50450333  0.87304100  1
  N  251  1  0.84867507  0.42300483  0.83586800  1
  N  257  1  0.01137607  0.50438983  0.79869700  1
  N  263  1  0.17403550  0.58585250  0.83586800  1
  N  361  1  0.51148160  0.50476440  0.53978600  1
  N  365  1  0.59303100  0.42358400  0.50261900  1
  N  371  1  0.51171410  0.50489490  0.46544100  1
  N  377  1  0.43012960  0.58603840  0.50260900  1
