# generated using pymatgen
data_H18C29N7O
_symmetry_space_group_name_H-M   'P 1'
_cell_length_a   9.78053333
_cell_length_b   25.59240000
_cell_length_c   25.59050000
_cell_angle_alpha   89.97000000
_cell_angle_beta   90.00000000
_cell_angle_gamma   90.00000000
_symmetry_Int_Tables_number   1
_chemical_formula_structural   H18C29N7O
_chemical_formula_sum   'H36 C58 N14 O2'
_cell_volume   6405.48862717
_cell_formula_units_Z   2
loop_
 _symmetry_equiv_pos_site_id
 _symmetry_equiv_pos_as_xyz
  1  'x, y, z'
loop_
 _atom_site_type_symbol
 _atom_site_label
 _atom_site_symmetry_multiplicity
 _atom_site_fract_x
 _atom_site_fract_y
 _atom_site_fract_z
 _atom_site_occupancy
  C  1  1  0.93152100  0.89063600  0.14616200  1
  C  2  1  0.93483300  0.85231400  0.10822600  1
  C  3  1  0.93677600  0.87652100  0.05926600  1
  C  5  1  0.93330800  0.93938100  0.12150900  1
  C  6  1  0.93168400  0.98845900  0.14788600  1
  C  7  1  0.93175400  0.03781200  0.12223100  1
  C  9  1  0.93206000  0.09962400  0.05976500  1
  C  10  1  0.93048600  0.12456300  0.10830100  1
  C  11  1  0.93177400  0.08662200  0.14664800  1
  C  12  1  0.93247100  0.12475900  0.01014600  1
  C  13  1  0.93469900  0.09787100  0.96135400  1
  C  15  1  0.93862600  0.03499000  0.89917500  1
  C  16  1  0.93997600  0.08368900  0.87445100  1
  C  17  1  0.93876800  0.12202900  0.91237900  1
  C  18  1  0.94012900  0.98592000  0.87282900  1
  C  19  1  0.93958700  0.93655900  0.89841700  1
  C  21  1  0.94013900  0.87477200  0.96084600  1
  C  22  1  0.94101900  0.84982200  0.91230900  1
  C  23  1  0.94159100  0.88778200  0.87396300  1
  C  24  1  0.93973900  0.84967300  0.01046300  1
  C  25  1  0.94220400  0.79369800  0.01113500  1
  C  26  1  0.94681500  0.68185900  0.01174700  1
  C  27  1  0.82425500  0.70972100  0.02151300  1
  C  28  1  0.82181100  0.76477300  0.02095700  1
  C  29  1  0.94274600  0.98609800  0.81685900  1
  C  30  1  0.94769400  0.98612900  0.70503200  1
  C  31  1  0.82531700  0.97573800  0.73279300  1
  C  32  1  0.82270100  0.97597000  0.78784400  1
  C  33  1  0.93195800  0.18077300  0.00938000  1
  C  34  1  0.81270300  0.20885100  0.99564500  1
  C  35  1  0.81309000  0.26391800  0.99434300  1
  C  36  1  0.93150800  0.29259600  0.00757100  1
  C  37  1  0.93079900  0.98833700  0.20391200  1
  C  38  1  0.81124800  0.00134900  0.23214200  1
  C  39  1  0.93101000  0.98981000  0.31575800  1
  C  40  1  0.81193600  0.00248500  0.28721600  1
  C  68  1  0.80407300  0.99046700  0.52357000  1
  C  69  1  0.90357500  0.98693800  0.56339000  1
  C  71  1  0.22050600  0.97485100  0.48820500  1
  C  76  1  0.86866100  0.98828500  0.61601500  1
  C  79  1  0.80321300  0.50038400  0.00717200  1
  C  80  1  0.90259500  0.54021400  0.01104900  1
  C  82  1  0.21935500  0.46502900  0.02399700  1
  C  87  1  0.86766600  0.59283600  0.00963400  1
  C  93  1  0.06500200  0.76605100  0.00189300  1
  C  94  1  0.06702500  0.71097000  0.00228800  1
  C  95  1  0.06540100  0.99595000  0.78932500  1
  C  96  1  0.06756800  0.99589300  0.73423900  1
  C  97  1  0.05099500  0.26436100  0.02108400  1
  C  98  1  0.05130000  0.20931700  0.02187400  1
  C  99  1  0.05063600  0.97621900  0.23233000  1
  C  100  1  0.05064700  0.97681400  0.28738300  1
  C  101  1  0.97569800  0.98182700  0.45704500  1
  C  103  1  0.07768100  0.97938800  0.49675500  1
  C  104  1  0.00121200  0.97370700  0.40423300  1
  C  106  1  0.97472000  0.43387500  0.01620900  1
  C  108  1  0.07662100  0.47358400  0.01901900  1
  C  109  1  0.00008033  0.38106600  0.02438100  1
  H  41  1  0.72402000  0.01255200  0.30647400  1
  H  42  1  0.72306600  0.01067400  0.21269200  1
  H  43  1  0.92854400  0.88328800  0.18540900  1
  H  44  1  0.93509900  0.81312000  0.11593300  1
  H  45  1  0.93810600  0.95500100  0.04288700  1
  H  46  1  0.93208800  0.01939800  0.97777900  1
  H  47  1  0.93197900  0.09417000  0.18586200  1
  H  48  1  0.92931100  0.16385300  0.11541600  1
  H  49  1  0.72485300  0.18930300  0.98610600  1
  H  50  1  0.72531200  0.28307800  0.98389400  1
  H  51  1  0.94086500  0.16120400  0.90462600  1
  H  52  1  0.94254300  0.09098200  0.83518600  1
  H  53  1  0.94166300  0.81051600  0.90524400  1
  H  54  1  0.94327900  0.88031900  0.83473300  1
  H  55  1  0.15415300  0.00319200  0.80927000  1
  H  56  1  0.15805400  0.00316300  0.71545400  1
  H  57  1  0.73252200  0.96831700  0.80668400  1
  H  58  1  0.73684700  0.96742500  0.71324600  1
  H  59  1  0.73142900  0.78368500  0.02803400  1
  H  60  1  0.73547700  0.69024800  0.02952300  1
  H  61  1  0.15760400  0.69212200  0.99539400  1
  H  62  1  0.15395500  0.78591200  0.99476100  1
  H  70  1  0.70233900  0.99417000  0.53202300  1
  H  74  1  0.24234200  0.02580900  0.42769800  1
  H  75  1  0.38776000  0.99924300  0.44866300  1
  H  77  1  0.77037500  0.99146800  0.62537800  1
  H  81  1  0.70154800  0.50883400  0.00317900  1
  H  85  1  0.24230200  0.40449000  0.97321000  1
  H  86  1  0.38712100  0.42545100  0.00022400  1
  H  88  1  0.76942200  0.60220000  0.00625400  1
  H  89  1  0.13989600  0.96861400  0.30647500  1
  H  90  1  0.13924200  0.96717000  0.21303500  1
  H  91  1  0.13962000  0.19011900  0.03153700  1
  H  92  1  0.13979200  0.28355800  0.02973300  1
  H  105  1  0.08056200  0.95156500  0.39444800  1
  H  110  1  0.07841700  0.37128600  0.04708000  1
  N  4  1  0.93598300  0.92858600  0.06955200  1
  N  8  1  0.93244900  0.04776800  0.07026500  1
  N  14  1  0.93497700  0.04580200  0.95111200  1
  N  20  1  0.93887100  0.92662000  0.95037800  1
  N  63  1  0.95827600  0.98591300  0.65286100  1
  N  64  1  0.92477300  0.34475300  0.00473800  1
  N  65  1  0.92464300  0.99268200  0.36792000  1
  N  66  1  0.95724300  0.62968300  0.01209300  1
  N  67  1  0.84347800  0.98709600  0.47284800  1
  N  73  1  0.28845600  0.00074600  0.45012100  1
  N  78  1  0.84258900  0.44966000  0.01058000  1
  N  84  1  0.28785100  0.42691400  0.99839600  1
  N  102  1  0.03561500  0.98160700  0.54752400  1
  N  107  1  0.03454300  0.52434700  0.01674500  1
  O  72  1  0.29619700  0.94838300  0.52373000  1
  O  83  1  0.29448800  0.50054100  0.05067500  1
