# generated using pymatgen
data_ZnH22C32(N2O3)2
_symmetry_space_group_name_H-M   'P 1'
_cell_length_a   16.51801550
_cell_length_b   16.54520000
_cell_length_c   25.90120000
_cell_angle_alpha   90.00000000
_cell_angle_beta   90.00000000
_cell_angle_gamma   119.88332531
_symmetry_Int_Tables_number   1
_chemical_formula_structural   ZnH22C32(N2O3)2
_chemical_formula_sum   'Zn6 H132 C192 N24 O36'
_cell_volume   6137.47596654
_cell_formula_units_Z   6
loop_
 _symmetry_equiv_pos_site_id
 _symmetry_equiv_pos_as_xyz
  1  'x, y, z'
loop_
 _atom_site_type_symbol
 _atom_site_label
 _atom_site_symmetry_multiplicity
 _atom_site_fract_x
 _atom_site_fract_y
 _atom_site_fract_z
 _atom_site_occupancy
  Zn  Zn0  1  0.42477000  0.71393000  0.99932000  1
  Zn  Zn1  1  0.28901000  0.71400000  0.66718000  1
  Zn  Zn2  1  0.28645000  0.57515000  0.33385000  1
  Zn  Zn3  1  0.57523000  0.28607000  0.99932000  1
  Zn  Zn4  1  0.71099000  0.28600000  0.66718000  1
  Zn  Zn5  1  0.71355000  0.42486000  0.33385000  1
  H  H6  1  0.21682000  0.82102000  0.08446000  1
  H  H7  1  0.78777000  0.47872000  0.03154000  1
  H  H8  1  0.91690000  0.44667000  0.03961000  1
  H  H9  1  0.53330000  0.63621000  0.94145000  1
  H  H10  1  0.64005000  0.57563000  0.96404000  1
  H  H11  1  0.60546000  0.62511000  0.12426000  1
  H  H12  1  0.98106000  0.56831000  0.19113000  1
  H  H13  1  0.84631000  0.59694000  0.18450000  1
  H  H14  1  0.49887000  0.67994000  0.09570000  1
  H  H15  1  0.71072000  0.53543000  0.02761000  1
  H  H16  1  0.17933000  0.39673000  0.75068000  1
  H  H17  1  0.52092000  0.30909000  0.69821000  1
  H  H18  1  0.55320000  0.47005000  0.70624000  1
  H  H19  1  0.36484000  0.89841000  0.60844000  1
  H  H20  1  0.42437000  0.06546000  0.63100000  1
  H  H21  1  0.37521000  0.98198000  0.79119000  1
  H  H22  1  0.43187000  0.41328000  0.85792000  1
  H  H23  1  0.40310000  0.25000000  0.85130000  1
  H  H24  1  0.32147000  0.82102000  0.76293000  1
  H  H25  1  0.46420000  0.17584000  0.69424000  1
  H  H26  1  0.60403000  0.78307000  0.41751000  1
  H  H27  1  0.69052000  0.21162000  0.36483000  1
  H  H28  1  0.52964000  0.08288000  0.37288000  1
  H  H29  1  0.10186000  0.46651000  0.27522000  1
  H  H30  1  0.93472000  0.35904000  0.29763000  1
  H  H31  1  0.01824000  0.39337000  0.45791000  1
  H  H32  1  0.58714000  0.01885000  0.52447000  1
  H  H33  1  0.75027000  0.15335000  0.51790000  1
  H  H34  1  0.17927000  0.50058000  0.42959000  1
  H  H35  1  0.82413000  0.28846000  0.36089000  1
  H  H36  1  0.78318000  0.17898000  0.08446000  1
  H  H37  1  0.21223000  0.52128000  0.03154000  1
  H  H38  1  0.08310000  0.55333000  0.03961000  1
  H  H39  1  0.46671000  0.36381000  0.94145000  1
  H  H40  1  0.35995000  0.42438000  0.96404000  1
  H  H41  1  0.39454000  0.37490000  0.12426000  1
  H  H42  1  0.01894000  0.43169000  0.19114000  1
  H  H43  1  0.15369000  0.40306000  0.18450000  1
  H  H44  1  0.50113000  0.32007000  0.09570000  1
  H  H45  1  0.28928000  0.46458000  0.02761000  1
  H  H46  1  0.82067000  0.60327000  0.75068000  1
  H  H47  1  0.47908000  0.69091000  0.69821000  1
  H  H48  1  0.44680000  0.52996000  0.70624000  1
  H  H49  1  0.63516000  0.10160000  0.60844000  1
  H  H50  1  0.57563000  0.93455000  0.63100000  1
  H  H51  1  0.62479000  0.01802000  0.79119000  1
  H  H52  1  0.56813000  0.58673000  0.85792000  1
  H  H53  1  0.59690000  0.75001000  0.85130000  1
  H  H54  1  0.67853000  0.17899000  0.76293000  1
  H  H55  1  0.53580000  0.82416000  0.69424000  1
  H  H56  1  0.39598000  0.21694000  0.41751000  1
  H  H57  1  0.30948000  0.78838000  0.36483000  1
  H  H58  1  0.47036000  0.91712000  0.37288000  1
  H  H59  1  0.89815000  0.53350000  0.27522000  1
  H  H60  1  0.06528000  0.64097000  0.29763000  1
  H  H61  1  0.98176000  0.60663000  0.45791000  1
  H  H62  1  0.41286000  0.98116000  0.52447000  1
  H  H63  1  0.24973000  0.84666000  0.51790000  1
  H  H64  1  0.82073000  0.49943000  0.42959000  1
  H  H65  1  0.17587000  0.71155000  0.36089000  1
  H  H66  1  0.39565000  0.17899000  0.58234000  1
  H  H67  1  0.30899000  0.52118000  0.63513000  1
  H  H68  1  0.47006000  0.55325000  0.62703000  1
  H  H69  1  0.89706000  0.36375000  0.72507000  1
  H  H70  1  0.06428000  0.42430000  0.70261000  1
  H  H71  1  0.98058000  0.37495000  0.54234000  1
  H  H72  1  0.41286000  0.43172000  0.47552000  1
  H  H73  1  0.24954000  0.40303000  0.48213000  1
  H  H74  1  0.81932000  0.32017000  0.57080000  1
  H  H75  1  0.17515000  0.46449000  0.63912000  1
  H  H76  1  0.78281000  0.60354000  0.91559000  1
  H  H77  1  0.21166000  0.69078000  0.96851000  1
  H  H78  1  0.08311000  0.52992000  0.96051000  1
  H  H79  1  0.46652000  0.10167000  0.05807000  1
  H  H80  1  0.35896000  0.93465000  0.03563000  1
  H  H81  1  0.39312000  0.01784000  0.87540000  1
  H  H82  1  0.01870000  0.58683000  0.80879000  1
  H  H83  1  0.15308000  0.74993000  0.81539000  1
  H  H84  1  0.50043000  0.17882000  0.90356000  1
  H  H85  1  0.28831000  0.82409000  0.97242000  1
  H  H86  1  0.82093000  0.21708000  0.24928000  1
  H  H87  1  0.47874000  0.78813000  0.30182000  1
  H  H88  1  0.44669000  0.91715000  0.29374000  1
  H  H89  1  0.63575000  0.53337000  0.39176000  1
  H  H90  1  0.57566000  0.64051000  0.36918000  1
  H  H91  1  0.62502000  0.60585000  0.20897000  1
  H  H92  1  0.56830000  0.98104000  0.14217000  1
  H  H93  1  0.59694000  0.84637000  0.14882000  1
  H  H94  1  0.67934000  0.49890000  0.23748000  1
  H  H95  1  0.53559000  0.71117000  0.30574000  1
  H  H96  1  0.60435000  0.82102000  0.58234000  1
  H  H97  1  0.69101000  0.47883000  0.63513000  1
  H  H98  1  0.52994000  0.44676000  0.62703000  1
  H  H99  1  0.10295000  0.63627000  0.72507000  1
  H  H100  1  0.93572000  0.57571000  0.70261000  1
  H  H101  1  0.01942000  0.62506000  0.54234000  1
  H  H102  1  0.58714000  0.56828000  0.47552000  1
  H  H103  1  0.75046000  0.59697000  0.48213000  1
  H  H104  1  0.18069000  0.67984000  0.57080000  1
  H  H105  1  0.82486000  0.53553000  0.63912000  1
  H  H106  1  0.21719000  0.39646000  0.91559000  1
  H  H107  1  0.78834000  0.30923000  0.96851000  1
  H  H108  1  0.91690000  0.47010000  0.96051000  1
  H  H109  1  0.53348000  0.89834000  0.05807000  1
  H  H110  1  0.64103000  0.06535000  0.03563000  1
  H  H111  1  0.60688000  0.98216000  0.87540000  1
  H  H112  1  0.98131000  0.41319000  0.80879000  1
  H  H113  1  0.84692000  0.25007000  0.81539000  1
  H  H114  1  0.49958000  0.82120000  0.90356000  1
  H  H115  1  0.71169000  0.17592000  0.97242000  1
  H  H116  1  0.17907000  0.78292000  0.24928000  1
  H  H117  1  0.52126000  0.21188000  0.30182000  1
  H  H118  1  0.55331000  0.08286000  0.29374000  1
  H  H119  1  0.36425000  0.46663000  0.39176000  1
  H  H120  1  0.42435000  0.35950000  0.36918000  1
  H  H121  1  0.37498000  0.39415000  0.20897000  1
  H  H122  1  0.43170000  0.01896000  0.14217000  1
  H  H123  1  0.40306000  0.15364000  0.14882000  1
  H  H124  1  0.32066000  0.50111000  0.23748000  1
  H  H125  1  0.46441000  0.28884000  0.30574000  1
  H  H126  1  0.32796000  0.67215000  0.16663000  1
  H  H127  1  0.15364000  0.84609000  0.16690000  1
  H  H128  1  0.32777000  0.65575000  0.83329000  1
  H  H129  1  0.15407000  0.30821000  0.83313000  1
  H  H130  1  0.34460000  0.67231000  0.50008000  1
  H  H131  1  0.69250000  0.84613000  0.49988000  1
  H  H132  1  0.67204000  0.32786000  0.16663000  1
  H  H133  1  0.84636000  0.15392000  0.16690000  1
  H  H134  1  0.67224000  0.34426000  0.83329000  1
  H  H135  1  0.84593000  0.69180000  0.83313000  1
  H  H136  1  0.65541000  0.32771000  0.50008000  1
  H  H137  1  0.30750000  0.15388000  0.49988000  1
  C  C138  1  0.31831000  0.73931000  0.07030000  1
  C  C139  1  0.27807000  0.74744000  0.12057000  1
  C  C140  1  0.22743000  0.79494000  0.12086000  1
  C  C141  1  0.80888000  0.54169000  0.10774000  1
  C  C142  1  0.73444000  0.56780000  0.10633000  1
  C  C143  1  0.82918000  0.49933000  0.06674000  1
  C  C144  1  0.90282000  0.48169000  0.07091000  1
  C  C145  1  0.55111000  0.63243000  0.98154000  1
  C  C146  1  0.61063000  0.59909000  0.99416000  1
  C  C147  1  0.59095000  0.62512000  0.08359000  1
  C  C148  1  0.63257000  0.59526000  0.04654000  1
  C  C149  1  0.93699000  0.54678000  0.15689000  1
  C  C150  1  0.86270000  0.56375000  0.15314000  1
  C  C151  1  0.95918000  0.50680000  0.11528000  1
  C  C152  1  0.53190000  0.65705000  0.06745000  1
  C  C153  1  0.26093000  0.57932000  0.73677000  1
  C  C154  1  0.25265000  0.53091000  0.78703000  1
  C  C155  1  0.20524000  0.43300000  0.78723000  1
  C  C156  1  0.45813000  0.26762000  0.77450000  1
  C  C157  1  0.43217000  0.16735000  0.77310000  1
  C  C158  1  0.50039000  0.33000000  0.73342000  1
  C  C159  1  0.51815000  0.42112000  0.73756000  1
  C  C160  1  0.36855000  0.92014000  0.64851000  1
  C  C161  1  0.40124000  0.01266000  0.66106000  1
  C  C162  1  0.37542000  0.96735000  0.75058000  1
  C  C163  1  0.40493000  0.03842000  0.71342000  1
  C  C164  1  0.45323000  0.39056000  0.82365000  1
  C  C165  1  0.43619000  0.29945000  0.81992000  1
  C  C166  1  0.49320000  0.45247000  0.78198000  1
  C  C167  1  0.34414000  0.87668000  0.73459000  1
  C  C168  1  0.42088000  0.68192000  0.40361000  1
  C  C169  1  0.46944000  0.72202000  0.45383000  1
  C  C170  1  0.56749000  0.77255000  0.45399000  1
  C  C171  1  0.73234000  0.19058000  0.44108000  1
  C  C172  1  0.83264000  0.26486000  0.43971000  1
  C  C173  1  0.66977000  0.17030000  0.40004000  1
  C  C174  1  0.57867000  0.09688000  0.40420000  1
  C  C175  1  0.08009000  0.44852000  0.31525000  1
  C  C176  1  0.98746000  0.38868000  0.32776000  1
  C  C177  1  0.03282000  0.40821000  0.41729000  1
  C  C178  1  0.96168000  0.36663000  0.38011000  1
  C  C179  1  0.60965000  0.06284000  0.49023000  1
  C  C180  1  0.70073000  0.13694000  0.48651000  1
  C  C181  1  0.54753000  0.04071000  0.44861000  1
  C  C182  1  0.12356000  0.46759000  0.40127000  1
  C  C183  1  0.68169000  0.26070000  0.07030000  1
  C  C184  1  0.72193000  0.25257000  0.12057000  1
  C  C185  1  0.77257000  0.20507000  0.12086000  1
  C  C186  1  0.19112000  0.45832000  0.10774000  1
  C  C187  1  0.26556000  0.43221000  0.10633000  1
  C  C188  1  0.17082000  0.50068000  0.06674000  1
  C  C189  1  0.09718000  0.51831000  0.07091000  1
  C  C190  1  0.44889000  0.36758000  0.98154000  1
  C  C191  1  0.38937000  0.40092000  0.99416000  1
  C  C192  1  0.40905000  0.37488000  0.08359000  1
  C  C193  1  0.36743000  0.40475000  0.04654000  1
  C  C194  1  0.06301000  0.45323000  0.15689000  1
  C  C195  1  0.13730000  0.43626000  0.15314000  1
  C  C196  1  0.04082000  0.49321000  0.11528000  1
  C  C197  1  0.46810000  0.34296000  0.06745000  1
  C  C198  1  0.73907000  0.42069000  0.73677000  1
  C  C199  1  0.74735000  0.46909000  0.78703000  1
  C  C200  1  0.79477000  0.56701000  0.78723000  1
  C  C201  1  0.54187000  0.73238000  0.77450000  1
  C  C202  1  0.56783000  0.83265000  0.77310000  1
  C  C203  1  0.49962000  0.67002000  0.73342000  1
  C  C204  1  0.48185000  0.57888000  0.73756000  1
  C  C205  1  0.63145000  0.07986000  0.64851000  1
  C  C206  1  0.59876000  0.98735000  0.66106000  1
  C  C207  1  0.62458000  0.03266000  0.75058000  1
  C  C208  1  0.59507000  0.96159000  0.71342000  1
  C  C209  1  0.54677000  0.60945000  0.82365000  1
  C  C210  1  0.56382000  0.70056000  0.81992000  1
  C  C211  1  0.50680000  0.54753000  0.78198000  1
  C  C212  1  0.65586000  0.12333000  0.73459000  1
  C  C213  1  0.57913000  0.31810000  0.40361000  1
  C  C214  1  0.53056000  0.27799000  0.45383000  1
  C  C215  1  0.43251000  0.22746000  0.45399000  1
  C  C216  1  0.26767000  0.80944000  0.44108000  1
  C  C217  1  0.16736000  0.73514000  0.43971000  1
  C  C218  1  0.33024000  0.82971000  0.40004000  1
  C  C219  1  0.42133000  0.90312000  0.40420000  1
  C  C220  1  0.91992000  0.55149000  0.31525000  1
  C  C221  1  0.01254000  0.61133000  0.32776000  1
  C  C222  1  0.96718000  0.59180000  0.41729000  1
  C  C223  1  0.03832000  0.63337000  0.38011000  1
  C  C224  1  0.39035000  0.93716000  0.49023000  1
  C  C225  1  0.29927000  0.86307000  0.48651000  1
  C  C226  1  0.45248000  0.95931000  0.44861000  1
  C  C227  1  0.87645000  0.53242000  0.40127000  1
  C  C228  1  0.57886000  0.26063000  0.59648000  1
  C  C229  1  0.53042000  0.25251000  0.54623000  1
  C  C230  1  0.43236000  0.20510000  0.54593000  1
  C  C231  1  0.26722000  0.45826000  0.55893000  1
  C  C232  1  0.16674000  0.43221000  0.56036000  1
  C  C233  1  0.32983000  0.50060000  0.59991000  1
  C  C234  1  0.42107000  0.51825000  0.59573000  1
  C  C235  1  0.91873000  0.36756000  0.68501000  1
  C  C236  1  0.01155000  0.40089000  0.67244000  1
  C  C237  1  0.96601000  0.37492000  0.58300000  1
  C  C238  1  0.03737000  0.40471000  0.62007000  1
  C  C239  1  0.39025000  0.45322000  0.50976000  1
  C  C240  1  0.29901000  0.43623000  0.51352000  1
  C  C241  1  0.45239000  0.49320000  0.55134000  1
  C  C242  1  0.87508000  0.34301000  0.59910000  1
  C  C243  1  0.68185000  0.42088000  0.92966000  1
  C  C244  1  0.72189000  0.46913000  0.87938000  1
  C  C245  1  0.77234000  0.56704000  0.87914000  1
  C  C246  1  0.19045000  0.73233000  0.89220000  1
  C  C247  1  0.26475000  0.83257000  0.89357000  1
  C  C248  1  0.17029000  0.66995000  0.93329000  1
  C  C249  1  0.09696000  0.57885000  0.92917000  1
  C  C250  1  0.44848000  0.07990000  0.01801000  1
  C  C251  1  0.38859000  0.98739000  0.00553000  1
  C  C252  1  0.40800000  0.03254000  0.91600000  1
  C  C253  1  0.36646000  0.96152000  0.95320000  1
  C  C254  1  0.06267000  0.60944000  0.84308000  1
  C  C255  1  0.13670000  0.70050000  0.84680000  1
  C  C256  1  0.04070000  0.54752000  0.88476000  1
  C  C257  1  0.46745000  0.12321000  0.93193000  1
  C  C258  1  0.73917000  0.31843000  0.26318000  1
  C  C259  1  0.74734000  0.27811000  0.21296000  1
  C  C260  1  0.79492000  0.22755000  0.21277000  1
  C  C261  1  0.54176000  0.80918000  0.22560000  1
  C  C262  1  0.56785000  0.73480000  0.22700000  1
  C  C263  1  0.49939000  0.82950000  0.26662000  1
  C  C264  1  0.48173000  0.90303000  0.26244000  1
  C  C265  1  0.63203000  0.55122000  0.35167000  1
  C  C266  1  0.59895000  0.61092000  0.33908000  1
  C  C267  1  0.62490000  0.59122000  0.24962000  1
  C  C268  1  0.59520000  0.63291000  0.28670000  1
  C  C269  1  0.54681000  0.93704000  0.17642000  1
  C  C270  1  0.56380000  0.86286000  0.18019000  1
  C  C271  1  0.50680000  0.95924000  0.21804000  1
  C  C272  1  0.65657000  0.53199000  0.26574000  1
  C  C273  1  0.42114000  0.73938000  0.59648000  1
  C  C274  1  0.46958000  0.74750000  0.54623000  1
  C  C275  1  0.56764000  0.79491000  0.54593000  1
  C  C276  1  0.73278000  0.54174000  0.55893000  1
  C  C277  1  0.83326000  0.56780000  0.56036000  1
  C  C278  1  0.67017000  0.49941000  0.59991000  1
  C  C279  1  0.57893000  0.48176000  0.59573000  1
  C  C280  1  0.08127000  0.63244000  0.68501000  1
  C  C281  1  0.98845000  0.59912000  0.67244000  1
  C  C282  1  0.03400000  0.62510000  0.58300000  1
  C  C283  1  0.96263000  0.59529000  0.62007000  1
  C  C284  1  0.60975000  0.54679000  0.50976000  1
  C  C285  1  0.70099000  0.56378000  0.51352000  1
  C  C286  1  0.54761000  0.50680000  0.55134000  1
  C  C287  1  0.12492000  0.65700000  0.59910000  1
  C  C288  1  0.31815000  0.57913000  0.92965000  1
  C  C289  1  0.27812000  0.53088000  0.87938000  1
  C  C290  1  0.22766000  0.43297000  0.87914000  1
  C  C291  1  0.80956000  0.26768000  0.89220000  1
  C  C292  1  0.73525000  0.16744000  0.89357000  1
  C  C293  1  0.82971000  0.33006000  0.93329000  1
  C  C294  1  0.90304000  0.42116000  0.92917000  1
  C  C295  1  0.55152000  0.92011000  0.01801000  1
  C  C296  1  0.61141000  0.01262000  0.00553000  1
  C  C297  1  0.59201000  0.96747000  0.91600000  1
  C  C298  1  0.63355000  0.03849000  0.95320000  1
  C  C299  1  0.93733000  0.39057000  0.84308000  1
  C  C300  1  0.86330000  0.29951000  0.84680000  1
  C  C301  1  0.95931000  0.45250000  0.88476000  1
  C  C302  1  0.53255000  0.87680000  0.93193000  1
  C  C303  1  0.26084000  0.68158000  0.26318000  1
  C  C304  1  0.25266000  0.72190000  0.21296000  1
  C  C305  1  0.20508000  0.77246000  0.21277000  1
  C  C306  1  0.45824000  0.19082000  0.22560000  1
  C  C307  1  0.43215000  0.26520000  0.22700000  1
  C  C308  1  0.50061000  0.17050000  0.26662000  1
  C  C309  1  0.51827000  0.09697000  0.26244000  1
  C  C310  1  0.36797000  0.44878000  0.35167000  1
  C  C311  1  0.40106000  0.38909000  0.33908000  1
  C  C312  1  0.37511000  0.40880000  0.24962000  1
  C  C313  1  0.40480000  0.36709000  0.28670000  1
  C  C314  1  0.45319000  0.06296000  0.17642000  1
  C  C315  1  0.43620000  0.13714000  0.18019000  1
  C  C316  1  0.49320000  0.04077000  0.21804000  1
  C  C317  1  0.34344000  0.46803000  0.26574000  1
  C  C318  1  0.28998000  0.71011000  0.16673000  1
  C  C319  1  0.19169000  0.80817000  0.16685000  1
  C  C320  1  0.28990000  0.57998000  0.83323000  1
  C  C321  1  0.19196000  0.38403000  0.83318000  1
  C  C322  1  0.42044000  0.71023000  0.50006000  1
  C  C323  1  0.61658000  0.80820000  0.49993000  1
  C  C324  1  0.71002000  0.28989000  0.16673000  1
  C  C325  1  0.80831000  0.19184000  0.16685000  1
  C  C326  1  0.71010000  0.42003000  0.83323000  1
  C  C327  1  0.80804000  0.61598000  0.83318000  1
  C  C328  1  0.57956000  0.28978000  0.50006000  1
  C  C329  1  0.38342000  0.19180000  0.49993000  1
  N  N330  1  0.51145000  0.66153000  0.01731000  1
  N  N331  1  0.69432000  0.56381000  0.05841000  1
  N  N332  1  0.34000000  0.85187000  0.68445000  1
  N  N333  1  0.43593000  0.13131000  0.72512000  1
  N  N334  1  0.14845000  0.48828000  0.35116000  1
  N  N335  1  0.86870000  0.30475000  0.39178000  1
  N  N336  1  0.48855000  0.33847000  0.01731000  1
  N  N337  1  0.30568000  0.43619000  0.05841000  1
  N  N338  1  0.66000000  0.14814000  0.68445000  1
  N  N339  1  0.56407000  0.86870000  0.72512000  1
  N  N340  1  0.85155000  0.51172000  0.35116000  1
  N  N341  1  0.13130000  0.69525000  0.39178000  1
  N  N342  1  0.85006000  0.33845000  0.64923000  1
  N  N343  1  0.13052000  0.43613000  0.60828000  1
  N  N344  1  0.48825000  0.14811000  0.98205000  1
  N  N345  1  0.30457000  0.86862000  0.94153000  1
  N  N346  1  0.66097000  0.51146000  0.31589000  1
  N  N347  1  0.56399000  0.69482000  0.27491000  1
  N  N348  1  0.14994000  0.66155000  0.64923000  1
  N  N349  1  0.86948000  0.56388000  0.60828000  1
  N  N350  1  0.51175000  0.85189000  0.98205000  1
  N  N351  1  0.69543000  0.13138000  0.94153000  1
  N  N352  1  0.33903000  0.48854000  0.31589000  1
  N  N353  1  0.43601000  0.30519000  0.27491000  1
  O  O354  1  0.37216000  0.70342000  0.07057000  1
  O  O355  1  0.30005000  0.76898000  0.02948000  1
  O  O356  1  0.71330000  0.59491000  0.14587000  1
  O  O357  1  0.29731000  0.66901000  0.73734000  1
  O  O358  1  0.23126000  0.53182000  0.69592000  1
  O  O359  1  0.40536000  0.11913000  0.81261000  1
  O  O360  1  0.33111000  0.62830000  0.40417000  1
  O  O361  1  0.46855000  0.70013000  0.36278000  1
  O  O362  1  0.88088000  0.28618000  0.47924000  1
  O  O363  1  0.62784000  0.29659000  0.07057000  1
  O  O364  1  0.69995000  0.23102000  0.02948000  1
  O  O365  1  0.28670000  0.40510000  0.14587000  1
  O  O366  1  0.70270000  0.33101000  0.73734000  1
  O  O367  1  0.76874000  0.46819000  0.69592000  1
  O  O368  1  0.59464000  0.88087000  0.81261000  1
  O  O369  1  0.66889000  0.37171000  0.40417000  1
  O  O370  1  0.53145000  0.29987000  0.36278000  1
  O  O371  1  0.11912000  0.71382000  0.47924000  1
  O  O372  1  0.66857000  0.29649000  0.59615000  1
  O  O373  1  0.53100000  0.23091000  0.63727000  1
  O  O374  1  0.11858000  0.40520000  0.52081000  1
  O  O375  1  0.62863000  0.33120000  0.92917000  1
  O  O376  1  0.69977000  0.46867000  0.97039000  1
  O  O377  1  0.28618000  0.88080000  0.85405000  1
  O  O378  1  0.70323000  0.37221000  0.26277000  1
  O  O379  1  0.76881000  0.30035000  0.30407000  1
  O  O380  1  0.59486000  0.71358000  0.18743000  1
  O  O381  1  0.33143000  0.70351000  0.59615000  1
  O  O382  1  0.46900000  0.76910000  0.63727000  1
  O  O383  1  0.88142000  0.59480000  0.52081000  1
  O  O384  1  0.37137000  0.66881000  0.92917000  1
  O  O385  1  0.30024000  0.53135000  0.97039000  1
  O  O386  1  0.71382000  0.11921000  0.85405000  1
  O  O387  1  0.29677000  0.62779000  0.26277000  1
  O  O388  1  0.23119000  0.69966000  0.30407000  1
  O  O389  1  0.40514000  0.28643000  0.18743000  1
