# generated using pymatgen
data_LaH25C28(NO4)2
_symmetry_space_group_name_H-M   'P 1'
_cell_length_a   9.09720200
_cell_length_b   16.83194077
_cell_length_c   31.05402410
_cell_angle_alpha   86.22043190
_cell_angle_beta   81.57736684
_cell_angle_gamma   74.32167284
_symmetry_Int_Tables_number   1
_chemical_formula_structural   LaH25C28(NO4)2
_chemical_formula_sum   'La4 H100 C112 N8 O32'
_cell_volume   4527.07520736
_cell_formula_units_Z   4
loop_
 _symmetry_equiv_pos_site_id
 _symmetry_equiv_pos_as_xyz
  1  'x, y, z'
loop_
 _atom_site_type_symbol
 _atom_site_label
 _atom_site_symmetry_multiplicity
 _atom_site_fract_x
 _atom_site_fract_y
 _atom_site_fract_z
 _atom_site_occupancy
  C  C1  1  0.68636322  0.71087324  0.66919004  1.0
  C  C2  1  0.77810193  0.75941982  0.68784046  1.0
  C  C3  1  0.70040116  0.83494927  0.70773063  1.0
  C  C4  1  0.78675344  0.88214727  0.72333527  1.0
  C  C5  1  0.94834631  0.85192461  0.71970333  1.0
  C  C6  1  0.02656504  0.77819910  0.69810410  1.0
  C  C7  1  0.94018881  0.73186935  0.68161301  1.0
  C  C8  1  0.03891206  0.90365248  0.73637232  1.0
  C  C9  1  0.70663008  0.96548437  0.74236701  1.0
  C  C10  1  0.52780117  0.86761868  0.71104632  1.0
  C  C11  1  0.02156792  0.65474904  0.65657506  1.0
  C  C12  1  0.20016827  0.75004553  0.69031437  1.0
  C  C13  1  0.16295607  0.01383409  0.70614483  1.0
  C  C14  1  0.19032532  0.03180416  0.74745990  1.0
  C  C15  1  0.27182415  0.08987451  0.75153785  1.0
  C  C16  1  0.32369325  0.13345924  0.71526960  1.0
  C  C17  1  0.29440163  0.11643845  0.67423807  1.0
  C  C18  1  0.21747313  0.05678617  0.66949217  1.0
  C  C19  1  0.30721323  0.10348498  0.79532590  1.0
  C  C20  1  0.43257003  0.52541793  0.59569117  1.0
  C  C21  1  0.48228698  0.60086147  0.58079045  1.0
  C  C22  1  0.48140016  0.62915598  0.53747550  1.0
  C  C23  1  0.53985970  0.69742150  0.52460284  1.0
  C  C24  1  0.59254080  0.73739496  0.55473174  1.0
  C  C25  1  0.59243837  0.70922026  0.59840462  1.0
  C  C26  1  0.53812447  0.63945279  0.61098809  1.0
  C  C27  1  0.55549548  0.72740470  0.47814442  1.0
  C  C28  1  0.34404085  0.16290584  0.63510722  1.0
  C  C57  1  0.06642650  0.78912676  0.83080996  1.0
  C  C58  1  0.22536221  0.74058018  0.81215954  1.0
  C  C59  1  0.24308106  0.66505073  0.79226937  1.0
  C  C60  1  0.39223598  0.61785273  0.77666473  1.0
  C  C61  1  0.51997425  0.64807539  0.78029667  1.0
  C  C62  1  0.50286824  0.72180090  0.80189590  1.0
  C  C63  1  0.35367117  0.76813065  0.81838699  1.0
  C  C64  1  0.67893686  0.59634752  0.76362768  1.0
  C  C65  1  0.41448146  0.53451563  0.75763299  1.0
  C  C66  1  0.10646617  0.63238132  0.78895368  1.0
  C  C67  1  0.33289202  0.84525096  0.84342494  1.0
  C  C68  1  0.64052817  0.74995447  0.80968563  1.0
  C  C69  1  0.88293499  0.48616591  0.79385517  1.0
  C  C70  1  0.96958938  0.46819584  0.75254010  1.0
  C  C71  1  0.11323651  0.41012549  0.74846215  1.0
  C  C72  1  0.17242209  0.36654076  0.78473040  1.0
  C  C73  1  0.08507815  0.38356155  0.82576193  1.0
  C  C74  1  0.94375147  0.44321383  0.83050783  1.0
  C  C75  1  0.20602411  0.39651502  0.70467410  1.0
  C  C76  1  0.55367913  0.97458207  0.90430883  1.0
  C  C77  1  0.66393890  0.89913853  0.91920955  1.0
  C  C78  1  0.64803164  0.87084402  0.96252450  1.0
  C  C79  1  0.76188404  0.80257850  0.97539716  1.0
  C  C80  1  0.88466750  0.76260504  0.94526826  1.0
  C  C81  1  0.90006325  0.79077974  0.90159538  1.0
  C  C82  1  0.78856535  0.86054721  0.88901191  1.0
  C  C83  1  0.76104460  0.77259530  0.02185558  1.0
  C  C84  1  0.14205391  0.33709416  0.86489278  1.0
  C  C113  1  0.31363678  0.28912676  0.33080996  1.0
  C  C114  1  0.22189807  0.24058018  0.31215954  1.0
  C  C115  1  0.29959884  0.16505073  0.29226937  1.0
  C  C116  1  0.21324656  0.11785273  0.27666473  1.0
  C  C117  1  0.05165369  0.14807539  0.28029667  1.0
  C  C118  1  0.97343496  0.22180090  0.30189590  1.0
  C  C119  1  0.05981119  0.26813065  0.31838699  1.0
  C  C120  1  0.96108794  0.09634752  0.26362768  1.0
  C  C121  1  0.29336992  0.03451563  0.25763299  1.0
  C  C122  1  0.47219883  0.13238132  0.28895368  1.0
  C  C123  1  0.97843208  0.34525096  0.34342494  1.0
  C  C124  1  0.79983173  0.24995447  0.30968563  1.0
  C  C125  1  0.83704393  0.98616591  0.29385517  1.0
  C  C126  1  0.80967468  0.96819584  0.25254010  1.0
  C  C127  1  0.72817585  0.91012549  0.24846215  1.0
  C  C128  1  0.67630675  0.86654076  0.28473040  1.0
  C  C129  1  0.70559837  0.88356155  0.32576193  1.0
  C  C130  1  0.78252687  0.94321383  0.33050783  1.0
  C  C131  1  0.69278677  0.89651502  0.20467410  1.0
  C  C132  1  0.56742997  0.47458207  0.40430883  1.0
  C  C133  1  0.51771302  0.39913853  0.41920955  1.0
  C  C134  1  0.51859984  0.37084402  0.46252450  1.0
  C  C135  1  0.46014030  0.30257850  0.47539716  1.0
  C  C136  1  0.40745920  0.26260504  0.44526826  1.0
  C  C137  1  0.40756163  0.29077974  0.40159538  1.0
  C  C138  1  0.46187553  0.36054721  0.38901191  1.0
  C  C139  1  0.44450452  0.27259530  0.52185558  1.0
  C  C140  1  0.65595915  0.83709416  0.36489278  1.0
  C  C169  1  0.93357350  0.21087324  0.16919004  1.0
  C  C170  1  0.77463779  0.25941982  0.18784046  1.0
  C  C171  1  0.75691894  0.33494927  0.20773063  1.0
  C  C172  1  0.60776402  0.38214727  0.22333527  1.0
  C  C173  1  0.48002575  0.35192461  0.21970333  1.0
  C  C174  1  0.49713176  0.27819910  0.19810410  1.0
  C  C175  1  0.64632883  0.23186935  0.18161301  1.0
  C  C176  1  0.32106314  0.40365248  0.23637232  1.0
  C  C177  1  0.58551854  0.46548437  0.24236701  1.0
  C  C178  1  0.89353383  0.36761868  0.21104632  1.0
  C  C179  1  0.66710798  0.15474904  0.15657506  1.0
  C  C180  1  0.35947183  0.25004553  0.19031437  1.0
  C  C181  1  0.11706501  0.51383409  0.20614483  1.0
  C  C182  1  0.03041062  0.53180416  0.24745990  1.0
  C  C183  1  0.88676349  0.58987451  0.25153785  1.0
  C  C184  1  0.82757791  0.63345924  0.21526960  1.0
  C  C185  1  0.91492185  0.61643845  0.17423807  1.0
  C  C186  1  0.05624853  0.55678617  0.16949217  1.0
  C  C187  1  0.79397589  0.60348498  0.29532590  1.0
  C  C188  1  0.44632087  0.02541793  0.09569117  1.0
  C  C189  1  0.33606110  0.10086147  0.08079045  1.0
  C  C190  1  0.35196836  0.12915598  0.03747550  1.0
  C  C191  1  0.23811596  0.19742150  0.02460284  1.0
  C  C192  1  0.11533250  0.23739496  0.05473174  1.0
  C  C193  1  0.09993675  0.20922026  0.09840462  1.0
  C  C194  1  0.21143465  0.13945279  0.11098809  1.0
  C  C195  1  0.23895540  0.22740470  0.97814442  1.0
  C  C196  1  0.85794609  0.66290584  0.13510722  1.0
  H  H1  1  0.62133501  0.83023140  0.43037892  1.0
  H  H2  1  0.08333259  0.93993170  0.67056370  1.0
  H  H3  1  0.70397676  0.79055031  0.61485807  1.0
  H  H4  1  0.75252098  0.64584437  0.66503957  1.0
  H  H5  1  0.58104402  0.70970458  0.69157058  1.0
  H  H6  1  0.96802601  0.94171826  0.76319506  1.0
  H  H7  1  0.14035962  0.86432856  0.75003962  1.0
  H  H8  1  0.59833391  0.99327903  0.72922751  1.0
  H  H9  1  0.77776924  0.00914467  0.73502575  1.0
  H  H10  1  0.67757853  0.96240074  0.77808404  1.0
  H  H11  1  0.47168623  0.82054287  0.70479543  1.0
  H  H12  1  0.49538064  0.91856725  0.68721553  1.0
  H  H13  1  0.47681258  0.89235575  0.74328281  1.0
  H  H14  1  0.02861508  0.59801055  0.67695313  1.0
  H  H15  1  0.13980568  0.65470569  0.64323687  1.0
  H  H16  1  0.96336136  0.64851641  0.62891655  1.0
  H  H17  1  0.25405691  0.78681320  0.70752044  1.0
  H  H18  1  0.24333817  0.75413881  0.65541111  1.0
  H  H19  1  0.24392044  0.68540303  0.70079117  1.0
  H  H20  1  0.15047096  0.00047038  0.77681498  1.0
  H  H21  1  0.38509627  0.17941523  0.71877907  1.0
  H  H22  1  0.19804720  0.04459744  0.63701036  1.0
  H  H23  1  0.44115580  0.59741157  0.51404933  1.0
  H  H24  1  0.63789515  0.78996711  0.54353981  1.0
  H  H25  1  0.53861934  0.61405377  0.64411125  1.0
  H  H51  1  0.88194533  0.66976860  0.06962108  1.0
  H  H52  1  0.69382799  0.56006830  0.82943630  1.0
  H  H53  1  0.10938514  0.70944969  0.88514193  1.0
  H  H54  1  0.06340492  0.85415563  0.83496043  1.0
  H  H55  1  0.98231918  0.79029542  0.80842942  1.0
  H  H56  1  0.67293933  0.55828174  0.73680494  1.0
  H  H57  1  0.75472780  0.63567144  0.74996038  1.0
  H  H58  1  0.32084045  0.50672097  0.77077249  1.0
  H  H59  1  0.52193966  0.49085533  0.76497425  1.0
  H  H60  1  0.41806331  0.53759926  0.72191596  1.0
  H  H61  1  0.99702453  0.67945713  0.79520457  1.0
  H  H62  1  0.10116342  0.58143275  0.81278447  1.0
  H  H63  1  0.11245114  0.60764425  0.75671719  1.0
  H  H64  1  0.30357876  0.90198945  0.82304687  1.0
  H  H65  1  0.43774824  0.84529431  0.85676313  1.0
  H  H66  1  0.24079432  0.85148359  0.87108345  1.0
  H  H67  1  0.74839055  0.71318680  0.79247956  1.0
  H  H68  1  0.65288809  0.74586119  0.84458889  1.0
  H  H69  1  0.63011464  0.81459697  0.79920883  1.0
  H  H70  1  0.92775632  0.49952962  0.72318502  1.0
  H  H71  1  0.28329057  0.32058477  0.78122093  1.0
  H  H72  1  0.87965500  0.45540256  0.86298964  1.0
  H  H73  1  0.55261670  0.90258843  0.98595067  1.0
  H  H74  1  0.97140207  0.71003289  0.95646019  1.0
  H  H75  1  0.79678436  0.88594623  0.85588875  1.0
  H  H101  1  0.37866499  0.16976860  0.56962108  1.0
  H  H102  1  0.91666741  0.06006830  0.32943630  1.0
  H  H103  1  0.29602324  0.20944969  0.38514193  1.0
  H  H104  1  0.24747902  0.35415563  0.33496043  1.0
  H  H105  1  0.41895598  0.29029542  0.30842942  1.0
  H  H106  1  0.03197399  0.05828174  0.23680494  1.0
  H  H107  1  0.85964038  0.13567144  0.24996038  1.0
  H  H108  1  0.40166609  0.00672097  0.27077249  1.0
  H  H109  1  0.22223076  0.99085533  0.26497425  1.0
  H  H110  1  0.32242147  0.03759926  0.22191596  1.0
  H  H111  1  0.52831377  0.17945713  0.29520457  1.0
  H  H112  1  0.50461936  0.08143275  0.31278447  1.0
  H  H113  1  0.52318742  0.10764425  0.25671719  1.0
  H  H114  1  0.97138492  0.40198945  0.32304687  1.0
  H  H115  1  0.86019432  0.34529431  0.35676313  1.0
  H  H116  1  0.03663864  0.35148359  0.37108345  1.0
  H  H117  1  0.74594309  0.21318680  0.29247956  1.0
  H  H118  1  0.75666183  0.24586119  0.34458889  1.0
  H  H119  1  0.75607956  0.31459697  0.29920883  1.0
  H  H120  1  0.84952904  0.99952962  0.22318502  1.0
  H  H121  1  0.61490373  0.82058477  0.28122093  1.0
  H  H122  1  0.80195280  0.95540256  0.36298964  1.0
  H  H123  1  0.55884420  0.40258843  0.48595067  1.0
  H  H124  1  0.36210485  0.21003289  0.45646019  1.0
  H  H125  1  0.46138066  0.38594623  0.35588875  1.0
  H  H151  1  0.11805467  0.33023140  0.93037892  1.0
  H  H152  1  0.30617201  0.43993170  0.17056370  1.0
  H  H153  1  0.89061486  0.29055031  0.11485807  1.0
  H  H154  1  0.93659508  0.14584437  0.16503957  1.0
  H  H155  1  0.01768082  0.20970458  0.19157058  1.0
  H  H156  1  0.32706067  0.44171826  0.26319506  1.0
  H  H157  1  0.24527220  0.36432856  0.25003962  1.0
  H  H158  1  0.67915955  0.49327903  0.22922751  1.0
  H  H159  1  0.47806034  0.50914467  0.23502575  1.0
  H  H160  1  0.58193669  0.46240074  0.27808404  1.0
  H  H161  1  0.00297547  0.32054287  0.20479543  1.0
  H  H162  1  0.89883658  0.41856725  0.18721553  1.0
  H  H163  1  0.88754886  0.39235575  0.24328281  1.0
  H  H164  1  0.69642124  0.09801055  0.17695313  1.0
  H  H165  1  0.56225176  0.15470569  0.14323687  1.0
  H  H166  1  0.75920568  0.14851641  0.12891655  1.0
  H  H167  1  0.25160945  0.28681320  0.20752044  1.0
  H  H168  1  0.34711191  0.25413881  0.15541111  1.0
  H  H169  1  0.36988536  0.18540303  0.20079117  1.0
  H  H170  1  0.07224368  0.50047038  0.27681498  1.0
  H  H171  1  0.71670943  0.67941523  0.21877907  1.0
  H  H172  1  0.12034500  0.54459744  0.13701036  1.0
  H  H173  1  0.44738330  0.09741157  0.01404933  1.0
  H  H174  1  0.02859793  0.28996711  0.04353981  1.0
  H  H175  1  0.20321564  0.11405377  0.14411125  1.0
  La  La1  1  0.36790030  0.12703345  0.87900817  1.0
  La  La3  1  0.37394192  0.37296655  0.62099183  1.0
  La  La5  1  0.63209970  0.87296655  0.12099183  1.0
  La  La7  1  0.62605808  0.62703345  0.37900817  1.0
  N  N1  1  0.08443357  0.95689255  0.70118409  1.0
  N  N2  1  0.64548791  0.74913084  0.62762382  1.0
  N  N5  1  0.74251021  0.54310745  0.79881591  1.0
  N  N6  1  0.02224257  0.75086916  0.87237618  1.0
  N  N9  1  0.91556643  0.04310745  0.29881591  1.0
  N  N10  1  0.35451209  0.25086916  0.37237618  1.0
  N  N13  1  0.25748979  0.45689255  0.20118409  1.0
  N  N14  1  0.97775743  0.24913084  0.12762382  1.0
  O  O1  1  0.22597566  0.08203337  0.82973055  1.0
  O  O2  1  0.41825067  0.13492676  0.79837642  1.0
  O  O3  1  0.50051382  0.47946746  0.62602126  1.0
  O  O4  1  0.32767644  0.50559779  0.57884413  1.0
  O  O5  1  0.53371111  0.68284019  0.44883709  1.0
  O  O6  1  0.59329875  0.79464125  0.47024321  1.0
  O  O7  1  0.37908185  0.22948499  0.63895925  1.0
  O  O8  1  0.34719481  0.13159692  0.59781538  1.0
  O  O17  1  0.13773958  0.41796663  0.67026945  1.0
  O  O18  1  0.35155385  0.36507324  0.70162358  1.0
  O  O19  1  0.60600254  0.02053254  0.87397874  1.0
  O  O20  1  0.41211836  0.99440221  0.92115587  1.0
  O  O21  1  0.66538839  0.81715981  0.05116291  1.0
  O  O22  1  0.85818321  0.70535875  0.02975679  1.0
  O  O23  1  0.24752609  0.27051501  0.86104075  1.0
  O  O24  1  0.07660711  0.36840308  0.90218462  1.0
  O  O33  1  0.77402434  0.91796663  0.17026945  1.0
  O  O34  1  0.58174933  0.86507324  0.20162358  1.0
  O  O35  1  0.49948618  0.52053254  0.37397874  1.0
  O  O36  1  0.67232356  0.49440221  0.42115587  1.0
  O  O37  1  0.46628889  0.31715981  0.55116291  1.0
  O  O38  1  0.40670125  0.20535875  0.52975679  1.0
  O  O39  1  0.62091815  0.77051501  0.36104075  1.0
  O  O40  1  0.65280519  0.86840308  0.40218462  1.0
  O  O49  1  0.86226042  0.58203337  0.32973055  1.0
  O  O50  1  0.64844615  0.63492676  0.29837642  1.0
  O  O51  1  0.39399746  0.97946746  0.12602126  1.0
  O  O52  1  0.58788164  0.00559779  0.07884413  1.0
  O  O53  1  0.33461161  0.18284019  0.94883709  1.0
  O  O54  1  0.14181679  0.29464125  0.97024321  1.0
  O  O55  1  0.75247391  0.72948499  0.13895925  1.0
  O  O56  1  0.92339289  0.63159692  0.09781538  1.0
