# generated using pymatgen
data_CaH8(C3O2)2
_symmetry_space_group_name_H-M   'P 1'
_cell_length_a   7.77900000
_cell_length_b   14.85500000
_cell_length_c   15.33900000
_cell_angle_alpha   90.00000000
_cell_angle_beta   90.00000000
_cell_angle_gamma   98.63100000
_symmetry_Int_Tables_number   1
_chemical_formula_structural   CaH8(C3O2)2
_chemical_formula_sum   'Ca4 H32 C24 O16'
_cell_volume   1752.45620131
_cell_formula_units_Z   4
loop_
 _symmetry_equiv_pos_site_id
 _symmetry_equiv_pos_as_xyz
  1  'x, y, z'
loop_
 _atom_site_type_symbol
 _atom_site_label
 _atom_site_symmetry_multiplicity
 _atom_site_fract_x
 _atom_site_fract_y
 _atom_site_fract_z
 _atom_site_occupancy
  Ca  Ca1  1  0.54889000  0.22053000  0.71929000  1.0
  Ca  Ca2  1  0.95111000  0.77947000  0.21929000  1.0
  Ca  Ca3  1  0.45111000  0.77947000  0.28071000  1.0
  Ca  Ca4  1  0.04889000  0.22053000  0.78071000  1.0
  H  H1  1  0.77250000  0.04290000  0.94670000  1.0
  H  H2  1  0.76170000  0.13900000  0.98590000  1.0
  H  H3  1  0.53870000  0.91220000  0.98250000  1.0
  H  H4  1  0.40890000  0.95960000  0.92720000  1.0
  H  H5  1  0.30040000  0.37890000  0.95830000  1.0
  H  H6  1  0.46170000  0.34290000  0.99890000  1.0
  H  H7  1  0.48640000  0.51110000  0.90870000  1.0
  H  H8  1  0.64380000  0.47550000  0.95400000  1.0
  H  H9  1  0.72750000  0.95710000  0.44670000  1.0
  H  H10  1  0.73830000  0.86100000  0.48590000  1.0
  H  H11  1  0.96130000  0.08780000  0.48250000  1.0
  H  H12  1  0.09110000  0.04040000  0.42720000  1.0
  H  H13  1  0.19960000  0.62110000  0.45830000  1.0
  H  H14  1  0.03830000  0.65710000  0.49890000  1.0
  H  H15  1  0.01360000  0.48890000  0.40870000  1.0
  H  H16  1  0.85620000  0.52450000  0.45400000  1.0
  H  H17  1  0.22750000  0.95710000  0.05330000  1.0
  H  H18  1  0.23830000  0.86100000  0.01410000  1.0
  H  H19  1  0.46130000  0.08780000  0.01750000  1.0
  H  H20  1  0.59110000  0.04040000  0.07280000  1.0
  H  H21  1  0.69960000  0.62110000  0.04170000  1.0
  H  H22  1  0.53830000  0.65710000  0.00110000  1.0
  H  H23  1  0.51360000  0.48890000  0.09130000  1.0
  H  H24  1  0.35620000  0.52450000  0.04600000  1.0
  H  H25  1  0.27250000  0.04290000  0.55330000  1.0
  H  H26  1  0.26170000  0.13900000  0.51410000  1.0
  H  H27  1  0.03870000  0.91220000  0.51750000  1.0
  H  H28  1  0.90890000  0.95960000  0.57280000  1.0
  H  H29  1  0.80040000  0.37890000  0.54170000  1.0
  H  H30  1  0.96170000  0.34290000  0.50110000  1.0
  H  H31  1  0.98640000  0.51110000  0.59130000  1.0
  H  H32  1  0.14380000  0.47550000  0.54600000  1.0
  C  C1  1  0.64660000  0.12021000  0.86813000  1.0
  C  C2  1  0.69570000  0.08792000  0.95540000  1.0
  C  C3  1  0.54600000  0.04619000  0.01448000  1.0
  C  C4  1  0.45410000  0.33156000  0.86628000  1.0
  C  C5  1  0.42410000  0.37821000  0.95130000  1.0
  C  C6  1  0.51960000  0.47632000  0.95780000  1.0
  C  C7  1  0.85340000  0.87979000  0.36813000  1.0
  C  C8  1  0.80430000  0.91208000  0.45540000  1.0
  C  C9  1  0.95400000  0.95381000  0.51448000  1.0
  C  C10  1  0.04590000  0.66844000  0.36628000  1.0
  C  C11  1  0.07590000  0.62179000  0.45130000  1.0
  C  C12  1  0.98040000  0.52368000  0.45780000  1.0
  C  C13  1  0.35340000  0.87979000  0.13187000  1.0
  C  C14  1  0.30430000  0.91208000  0.04460000  1.0
  C  C15  1  0.45400000  0.95381000  0.98552000  1.0
  C  C16  1  0.54590000  0.66844000  0.13372000  1.0
  C  C17  1  0.57590000  0.62179000  0.04870000  1.0
  C  C18  1  0.48040000  0.52368000  0.04220000  1.0
  C  C19  1  0.14660000  0.12021000  0.63187000  1.0
  C  C20  1  0.19570000  0.08792000  0.54460000  1.0
  C  C21  1  0.04600000  0.04619000  0.48552000  1.0
  C  C22  1  0.95410000  0.33156000  0.63372000  1.0
  C  C23  1  0.92410000  0.37821000  0.54870000  1.0
  C  C24  1  0.01960000  0.47632000  0.54220000  1.0
  O  O1  1  0.76640000  0.15002000  0.81530000  1.0
  O  O2  1  0.48930000  0.11907000  0.84772000  1.0
  O  O3  1  0.60910000  0.33040000  0.84180000  1.0
  O  O4  1  0.32740000  0.29559000  0.82138000  1.0
  O  O5  1  0.73360000  0.84998000  0.31530000  1.0
  O  O6  1  0.01070000  0.88093000  0.34772000  1.0
  O  O7  1  0.89090000  0.66960000  0.34180000  1.0
  O  O8  1  0.17260000  0.70441000  0.32138000  1.0
  O  O9  1  0.23360000  0.84998000  0.18470000  1.0
  O  O10  1  0.51070000  0.88093000  0.15228000  1.0
  O  O11  1  0.39090000  0.66960000  0.15820000  1.0
  O  O12  1  0.67260000  0.70441000  0.17862000  1.0
  O  O13  1  0.26640000  0.15002000  0.68470000  1.0
  O  O14  1  0.98930000  0.11907000  0.65228000  1.0
  O  O15  1  0.10910000  0.33040000  0.65820000  1.0
  O  O16  1  0.82740000  0.29559000  0.67862000  1.0
