# generated using pymatgen
data_V2H24C33O13F2
_symmetry_space_group_name_H-M   'P 1'
_cell_length_a   6.99578000
_cell_length_b   17.36443000
_cell_length_c   18.69942000
_cell_angle_alpha   74.02656000
_cell_angle_beta   89.50765000
_cell_angle_gamma   89.78223000
_symmetry_Int_Tables_number   1
_chemical_formula_structural   V2H24C33O13F2
_chemical_formula_sum   'V4 H48 C66 O26 F4'
_cell_volume   2183.77357672
_cell_formula_units_Z   2
loop_
 _symmetry_equiv_pos_site_id
 _symmetry_equiv_pos_as_xyz
  1  'x, y, z'
loop_
 _atom_site_type_symbol
 _atom_site_label
 _atom_site_symmetry_multiplicity
 _atom_site_fract_x
 _atom_site_fract_y
 _atom_site_fract_z
 _atom_site_occupancy
  V  V0  1  0.06466000  0.49079000  0.50173000  1
  V  V1  1  0.56403000  0.50921000  0.49827000  1
  V  V2  1  0.67026000  0.00920000  0.99827000  1
  V  V3  1  0.17087000  0.99068000  0.00182000  1
  H  H4  1  0.82090000  0.85125000  0.45972000  1
  H  H5  1  0.85682000  0.72050000  0.44299000  1
  H  H6  1  0.42719000  0.12821000  0.55450000  1
  H  H7  1  0.28460000  0.36662000  0.95518000  1
  H  H8  1  0.42695000  0.04301000  0.78994000  1
  H  H9  1  0.44651000  0.01757000  0.66927000  1
  H  H10  1  0.50100000  0.54890000  0.66981000  1
  H  H11  1  0.47255000  0.52700000  0.76709000  1
  H  H12  1  0.21898000  0.63286000  0.64539000  1
  H  H13  1  0.15366000  0.60348000  0.74314000  1
  H  H14  1  0.47848000  0.66627000  0.76498000  1
  H  H15  1  0.28996000  0.73317000  0.72115000  1
  H  H16  1  0.47934000  0.71129000  0.66476000  1
  H  H17  1  0.61906000  0.23790000  0.04427000  1
  H  H18  1  0.60286000  0.33145000  0.97789000  1
  H  H19  1  0.79008000  0.19791000  0.92492000  1
  H  H20  1  0.84327000  0.30251000  0.90106000  1
  H  H21  1  0.99699000  0.28558000  0.02424000  1
  H  H22  1  0.09540000  0.21453000  0.97865000  1
  H  H23  1  0.92838000  0.18098000  0.05263000  1
  H  H24  1  0.90194000  0.45934000  0.37189000  1
  H  H25  1  0.04712000  0.48926000  0.29046000  1
  H  H26  1  0.71757000  0.38920000  0.26900000  1
  H  H27  1  0.96732000  0.37495000  0.25757000  1
  H  H28  1  0.99442000  0.31038000  0.39493000  1
  H  H29  1  0.81861000  0.26132000  0.35325000  1
  H  H30  1  0.74431000  0.32810000  0.40670000  1
  H  H31  1  0.70226000  0.42844000  0.09637000  1
  H  H32  1  0.67742000  0.53057000  0.04759000  1
  H  H33  1  0.48859000  0.46054000  0.20203000  1
  H  H34  1  0.43585000  0.55254000  0.13414000  1
  H  H35  1  0.33006000  0.47068000  0.04666000  1
  H  H36  1  0.19043000  0.45117000  0.13188000  1
  H  H37  1  0.37077000  0.38108000  0.12042000  1
  H  H38  1  0.07162000  0.55375000  0.00200000  1
  H  H39  1  0.17686000  0.60716000  0.06188000  1
  H  H40  1  0.08863000  0.67312000  0.89508000  1
  H  H41  1  0.16889000  0.73348000  0.95358000  1
  H  H42  1  0.46507000  0.64896000  0.98391000  1
  H  H43  1  0.44152000  0.69540000  0.88570000  1
  H  H44  1  0.38579000  0.59040000  0.92304000  1
  H  H45  1  0.02737000  0.05648000  0.16678000  1
  H  H46  1  0.02937000  0.02673000  0.26487000  1
  H  H47  1  0.73706000  0.12912000  0.15724000  1
  H  H48  1  0.68217000  0.09119000  0.25455000  1
  H  H49  1  0.98510000  0.16324000  0.27969000  1
  H  H50  1  0.79447000  0.22705000  0.23252000  1
  H  H51  1  0.99598000  0.20962000  0.17965000  1
  C  C52  1  0.35003000  0.41685000  0.41876000  1
  C  C53  1  0.34421000  0.38532000  0.61644000  1
  C  C54  1  0.83855000  0.58479000  0.57974000  1
  C  C55  1  0.84383000  0.61158000  0.38176000  1
  C  C56  1  0.82145000  0.59001000  0.22827000  1
  C  C57  1  0.83172000  0.57993000  0.15599000  1
  C  C58  1  0.87207000  0.64602000  0.09529000  1
  C  C59  1  0.88387000  0.72219000  0.10511000  1
  C  C60  1  0.87019000  0.73576000  0.17652000  1
  C  C61  1  0.84702000  0.66786000  0.24008000  1
  C  C62  1  0.87555000  0.81543000  0.18480000  1
  C  C63  1  0.85874000  0.82735000  0.25758000  1
  C  C64  1  0.85625000  0.75878000  0.32096000  1
  C  C65  1  0.85123000  0.67993000  0.31279000  1
  C  C66  1  0.84307000  0.90548000  0.26989000  1
  C  C67  1  0.82044000  0.91175000  0.34353000  1
  C  C68  1  0.83290000  0.84503000  0.40378000  1
  C  C69  1  0.85221000  0.76995000  0.39312000  1
  C  C70  1  0.88784000  0.86618000  0.86552000  1
  C  C71  1  0.87945000  0.82432000  0.82126000  1
  C  C72  1  0.86920000  0.77485000  0.76870000  1
  C  C73  1  0.86074000  0.73289000  0.72455000  1
  C  C74  1  0.85085000  0.68242000  0.67280000  1
  C  C75  1  0.84426000  0.63865000  0.63016000  1
  C  C76  1  0.35869000  0.36482000  0.36680000  1
  C  C77  1  0.36262000  0.32181000  0.32350000  1
  C  C78  1  0.36599000  0.27129000  0.27187000  1
  C  C79  1  0.36804000  0.22889000  0.22805000  1
  C  C80  1  0.36942000  0.17868000  0.17608000  1
  C  C81  1  0.37321000  0.13577000  0.13267000  1
  C  C82  1  0.28977000  0.40938000  0.76720000  1
  C  C83  1  0.24856000  0.41654000  0.83889000  1
  C  C84  1  0.30160000  0.35693000  0.90067000  1
  C  C85  1  0.38297000  0.28614000  0.89300000  1
  C  C86  1  0.36918000  0.26772000  0.82349000  1
  C  C87  1  0.33707000  0.33226000  0.75780000  1
  C  C88  1  0.38637000  0.18766000  0.81826000  1
  C  C89  1  0.39399000  0.17315000  0.74739000  1
  C  C90  1  0.38159000  0.23782000  0.68113000  1
  C  C91  1  0.35338000  0.31772000  0.68604000  1
  C  C92  1  0.41674000  0.09401000  0.74144000  1
  C  C93  1  0.42859000  0.07846000  0.67255000  1
  C  C94  1  0.41790000  0.14086000  0.60798000  1
  C  C95  1  0.39445000  0.21949000  0.61143000  1
  C  C96  1  0.39090000  0.11808000  0.88634000  1
  C  C97  1  0.38432000  0.08355000  0.08088000  1
  C  C98  1  0.88953000  0.88553000  0.11684000  1
  C  C99  1  0.89618000  0.91739000  0.91831000  1
  C  C100  1  0.39191000  0.53914000  0.71385000  1
  C  C101  1  0.27455000  0.61554000  0.70296000  1
  C  C102  1  0.38899000  0.68550000  0.71445000  1
  C  C103  1  0.61583000  0.26614000  0.98351000  1
  C  C104  1  0.80480000  0.24982000  0.94800000  1
  C  C105  1  0.96617000  0.23216000  0.00455000  1
  C  C106  1  0.90071000  0.46860000  0.31134000  1
  C  C107  1  0.85744000  0.38749000  0.29619000  1
  C  C108  1  0.85387000  0.31773000  0.36715000  1
  C  C109  1  0.67779000  0.48886000  0.10429000  1
  C  C110  1  0.48161000  0.48959000  0.14156000  1
  C  C111  1  0.33378000  0.44556000  0.10796000  1
  C  C112  1  0.08131000  0.61314000  0.01320000  1
  C  C113  1  0.17196000  0.67242000  0.94555000  1
  C  C114  1  0.37892000  0.65007000  0.93401000  1
  C  C115  1  0.93277000  0.03916000  0.21591000  1
  C  C116  1  0.79980000  0.10988000  0.21335000  1
  C  C117  1  0.90163000  0.18151000  0.22747000  1
  O  O118  1  0.50564000  0.41568000  0.58624000  1
  O  O119  1  0.18119000  0.43291000  0.44277000  1
  O  O120  1  0.00571000  0.58432000  0.41376000  1
  O  O121  1  0.17626000  0.40644000  0.58748000  1
  O  O122  1  0.00075000  0.55766000  0.55950000  1
  O  O123  1  0.51060000  0.44234000  0.44050000  1
  O  O124  1  0.33750000  0.54965000  0.49065000  1
  O  O125  1  0.67073000  0.56709000  0.55723000  1
  O  O126  1  0.67566000  0.59356000  0.41252000  1
  O  O127  1  0.84106000  0.45035000  0.50935000  1
  O  O128  1  0.22431000  0.05775000  0.05943000  1
  O  O129  1  0.55880000  0.09357000  0.91251000  1
  O  O130  1  0.73416000  0.94232000  0.94052000  1
  O  O131  1  0.55373000  0.06711000  0.05721000  1
  O  O132  1  0.72905000  0.91566000  0.08625000  1
  O  O133  1  0.22942000  0.08440000  0.91370000  1
  O  O134  1  0.39736000  0.95040000  0.00931000  1
  O  O135  1  0.05910000  0.90636000  0.08755000  1
  O  O136  1  0.06417000  0.93282000  0.94284000  1
  O  O137  1  0.89390000  0.04959000  0.99069000  1
  O  O138  1  0.27021000  0.47622000  0.70689000  1
  O  O139  1  0.45947000  0.23214000  0.95494000  1
  O  O140  1  0.75427000  0.52573000  0.28468000  1
  O  O141  1  0.83037000  0.50260000  0.14848000  1
  O  O142  1  0.89334000  0.63825000  0.02397000  1
  O  O143  1  0.82196000  0.97301000  0.20982000  1
  F  F144  1  0.16991000  0.48434000  0.84894000  1
  F  F145  1  0.38316000  0.27628000  0.54550000  1
  F  F146  1  0.91494000  0.78205000  0.04253000  1
  F  F147  1  0.78099000  0.98252000  0.35794000  1
