# generated using pymatgen
data_DyH6(C2O)6
_symmetry_space_group_name_H-M   'P 1'
_cell_length_a   9.82830000
_cell_length_b   10.43620000
_cell_length_c   11.07600000
_cell_angle_alpha   76.89400000
_cell_angle_beta   76.29600000
_cell_angle_gamma   65.99900000
_symmetry_Int_Tables_number   1
_chemical_formula_structural   DyH6(C2O)6
_chemical_formula_sum   'Dy2 H12 C24 O12'
_cell_volume   997.35488231
_cell_formula_units_Z   2
loop_
 _symmetry_equiv_pos_site_id
 _symmetry_equiv_pos_as_xyz
  1  'x, y, z'
loop_
 _atom_site_type_symbol
 _atom_site_label
 _atom_site_symmetry_multiplicity
 _atom_site_fract_x
 _atom_site_fract_y
 _atom_site_fract_z
 _atom_site_occupancy
  Dy  Dy1  1  0.94493000  0.22808000  0.82291000  1.0
  Dy  Dy2  1  0.05507000  0.77192000  0.17709000  1.0
  H  H1  1  0.30780000  0.92220000  0.50630000  1.0
  H  H2  1  0.45520000  0.18490000  0.60490000  1.0
  H  H3  1  0.43570000  0.41490000  0.70900000  1.0
  H  H4  1  0.74000000  0.50230000  0.42380000  1.0
  H  H5  1  0.60030000  0.11820000  0.82100000  1.0
  H  H6  1  0.64940000  0.85960000  0.15010000  1.0
  H  H7  1  0.69220000  0.07780000  0.49370000  1.0
  H  H8  1  0.54480000  0.81510000  0.39510000  1.0
  H  H9  1  0.56430000  0.58510000  0.29100000  1.0
  H  H10  1  0.26000000  0.49770000  0.57620000  1.0
  H  H11  1  0.39970000  0.88180000  0.17900000  1.0
  H  H12  1  0.35060000  0.14040000  0.84990000  1.0
  C  C1  1  0.35690000  0.06510000  0.56740000  1.0
  C  C2  1  0.38460000  0.95350000  0.50390000  1.0
  C  C3  1  0.47310000  0.11060000  0.56270000  1.0
  C  C4  1  0.20540000  0.13160000  0.64560000  1.0
  C  C5  1  0.60800000  0.44860000  0.57930000  1.0
  C  C6  1  0.46150000  0.44870000  0.62510000  1.0
  C  C7  1  0.64390000  0.50100000  0.45440000  1.0
  C  C8  1  0.72360000  0.38930000  0.66510000  1.0
  C  C9  1  0.64930000  0.98610000  0.98300000  1.0
  C  C10  1  0.56000000  0.07080000  0.89270000  1.0
  C  C11  1  0.58950000  0.91590000  0.08980000  1.0
  C  C12  1  0.80960000  0.97680000  0.96690000  1.0
  C  C13  1  0.64310000  0.93490000  0.43260000  1.0
  C  C14  1  0.61540000  0.04650000  0.49610000  1.0
  C  C15  1  0.52690000  0.88940000  0.43730000  1.0
  C  C16  1  0.79460000  0.86840000  0.35440000  1.0
  C  C17  1  0.39200000  0.55140000  0.42070000  1.0
  C  C18  1  0.53850000  0.55130000  0.37490000  1.0
  C  C19  1  0.35610000  0.49900000  0.54560000  1.0
  C  C20  1  0.27640000  0.61070000  0.33490000  1.0
  C  C21  1  0.35070000  0.01390000  0.01700000  1.0
  C  C22  1  0.44000000  0.92920000  0.10730000  1.0
  C  C23  1  0.41050000  0.08410000  0.91020000  1.0
  C  C24  1  0.19040000  0.02320000  0.03310000  1.0
  O  O1  1  0.17234000  0.24758000  0.68167000  1.0
  O  O2  1  0.11670000  0.06470000  0.67817000  1.0
  O  O3  1  0.68510000  0.35000000  0.77960000  1.0
  O  O4  1  0.85800000  0.37680000  0.62319000  1.0
  O  O5  1  0.85732000  0.04738000  0.87230000  1.0
  O  O6  1  0.88400000  0.89770000  0.05058000  1.0
  O  O7  1  0.82766000  0.75242000  0.31833000  1.0
  O  O8  1  0.88330000  0.93530000  0.32183000  1.0
  O  O9  1  0.31490000  0.65000000  0.22040000  1.0
  O  O10  1  0.14200000  0.62320000  0.37681000  1.0
  O  O11  1  0.14268000  0.95262000  0.12770000  1.0
  O  O12  1  0.11600000  0.10230000  0.94942000  1.0
