# generated using pymatgen
data_EuH8C10NO7
_symmetry_space_group_name_H-M   'P 1'
_cell_length_a   8.29637000
_cell_length_b   9.66700000
_cell_length_c   10.54995000
_cell_angle_alpha   94.73020000
_cell_angle_beta   112.62370000
_cell_angle_gamma   112.63567000
_symmetry_Int_Tables_number   1
_chemical_formula_structural   EuH8C10NO7
_chemical_formula_sum   'Eu2 H16 C20 N2 O14'
_cell_volume   693.96040556
_cell_formula_units_Z   2
loop_
 _symmetry_equiv_pos_site_id
 _symmetry_equiv_pos_as_xyz
  1  'x, y, z'
loop_
 _atom_site_type_symbol
 _atom_site_label
 _atom_site_symmetry_multiplicity
 _atom_site_fract_x
 _atom_site_fract_y
 _atom_site_fract_z
 _atom_site_occupancy
  Eu  Eu1  1  0.28720000  0.05252000  0.01298000  1.0
  Eu  Eu2  1  0.71211000  0.94749000  0.98710000  1.0
  H  H1  1  0.84029000  0.77866000  0.65630000  1.0
  H  H2  1  0.72877000  0.79406000  0.39792000  1.0
  H  H3  1  0.74137000  0.23155000  0.53815000  1.0
  H  H4  1  0.87896000  0.20671000  0.79388000  1.0
  H  H5  1  0.48434000  0.61676000  0.13890000  1.0
  H  H6  1  0.27230000  0.53764000  0.16658000  1.0
  H  H7  1  0.26793000  0.53896000  0.87225000  1.0
  H  H8  1  0.05818000  0.47361000  0.90497000  1.0
  H  H9  1  0.16044000  0.22117000  0.34416000  1.0
  H  H10  1  0.27080000  0.20556000  0.60246000  1.0
  H  H11  1  0.25842000  0.76823000  0.46237000  1.0
  H  H12  1  0.12231000  0.79336000  0.20658000  1.0
  H  H13  1  0.51573000  0.38308000  0.86145000  1.0
  H  H14  1  0.72811000  0.46199000  0.83390000  1.0
  H  H15  1  0.73245000  0.46109000  0.12828000  1.0
  H  H16  1  0.94218000  0.52598000  0.09520000  1.0
  C  C1  1  0.82052000  0.87575000  0.62077000  1.0
  C  C2  1  0.75738000  0.88665000  0.48182000  1.0
  C  C3  1  0.72915000  0.01574000  0.44934000  1.0
  C  C4  1  0.76658000  0.13178000  0.56029000  1.0
  C  C5  1  0.83865000  0.12141000  0.69930000  1.0
  C  C6  1  0.66160000  0.02907000  0.29808000  1.0
  C  C7  1  0.32856000  0.37195000  0.06942000  1.0
  C  C8  1  0.32966000  0.52894000  0.08976000  1.0
  C  C9  1  0.21363000  0.55654000  0.94903000  1.0
  C  C10  1  0.23787000  0.72165000  0.97401000  1.0
  C  C11  1  0.18001000  0.12405000  0.37968000  1.0
  C  C12  1  0.24309000  0.11330000  0.51868000  1.0
  C  C13  1  0.27131000  0.98424000  0.55118000  1.0
  C  C14  1  0.23399000  0.86828000  0.44018000  1.0
  C  C15  1  0.16210000  0.87853000  0.30110000  1.0
  C  C16  1  0.33875000  0.97065000  0.70234000  1.0
  C  C17  1  0.67137000  0.62784000  0.93030000  1.0
  C  C18  1  0.67040000  0.47095000  0.91042000  1.0
  C  C19  1  0.78653000  0.44357000  0.05132000  1.0
  C  C20  1  0.76174000  0.27835000  0.02553000  1.0
  N  N1  1  0.86423000  0.99418000  0.72708000  1.0
  N  N2  1  0.13607000  0.00560000  0.27328000  1.0
  O  O1  1  0.93373000  0.98527000  0.86053000  1.0
  O  O2  1  0.52096000  0.06403000  0.25141000  1.0
  O  O3  1  0.75334000  0.00380000  0.23408000  1.0
  O  O4  1  0.38573000  0.31971000  0.17597000  1.0
  O  O5  1  0.27406000  0.29203000  0.94405000  1.0
  O  O6  1  0.10900000  0.75039000  0.99014000  1.0
  O  O7  1  0.39201000  0.83144000  0.98025000  1.0
  O  O8  1  0.06602000  0.01437000  0.13979000  1.0
  O  O9  1  0.47942000  0.93576000  0.74870000  1.0
  O  O10  1  0.24662000  0.99515000  0.76637000  1.0
  O  O11  1  0.61434000  0.68013000  0.82374000  1.0
  O  O12  1  0.72562000  0.70771000  0.05562000  1.0
  O  O13  1  0.88919000  0.24940000  0.00723000  1.0
  O  O14  1  0.60837000  0.16873000  0.02044000  1.0
