# generated using pymatgen
data_H8C14N3O2
_symmetry_space_group_name_H-M   'P 1'
_cell_length_a   9.98726667
_cell_length_b   91.19165000
_cell_length_c   91.19160000
_cell_angle_alpha   119.99994559
_cell_angle_beta   90.00000000
_cell_angle_gamma   90.00000000
_symmetry_Int_Tables_number   1
_chemical_formula_structural   H8C14N3O2
_chemical_formula_sum   'H144 C252 N54 O36'
_cell_volume   71926.25117354
_cell_formula_units_Z   18
loop_
 _symmetry_equiv_pos_site_id
 _symmetry_equiv_pos_as_xyz
  1  'x, y, z'
loop_
 _atom_site_type_symbol
 _atom_site_label
 _atom_site_symmetry_multiplicity
 _atom_site_fract_x
 _atom_site_fract_y
 _atom_site_fract_z
 _atom_site_occupancy
  C  1  1  0.99367500  0.99043500  0.49308900  1
  C  2  1  0.06029100  0.97912600  0.49711600  1
  C  3  1  0.90874700  0.98364000  0.47877100  1
  C  22  1  0.04094100  0.96141700  0.48669300  1
  C  23  1  0.89109400  0.96608000  0.46853900  1
  C  31  1  0.95714800  0.95458400  0.47222900  1
  C  37  1  0.98455900  0.81843500  0.43598200  1
  C  38  1  0.98115300  0.87272800  0.43718900  1
  C  39  1  0.97191100  0.81927000  0.38360600  1
  C  40  1  0.97575300  0.88205900  0.42858300  1
  C  41  1  0.97788000  0.89986500  0.43745100  1
  C  42  1  0.98459300  0.90905400  0.45532800  1
  C  43  1  0.99247900  0.89991000  0.46400500  1
  C  44  1  0.98981400  0.88207300  0.45511000  1
  C  45  1  0.97290300  0.82592800  0.45380300  1
  C  46  1  0.97414500  0.81596600  0.46166700  1
  C  47  1  0.99025000  0.79825900  0.45194300  1
  C  48  1  0.00002900  0.79064800  0.43418500  1
  C  49  1  0.99779500  0.80056300  0.42637900  1
  C  50  1  0.98223000  0.80135600  0.37471200  1
  C  51  1  0.97769400  0.79196300  0.35695100  1
  C  52  1  0.96294100  0.80011800  0.34739800  1
  C  53  1  0.95271200  0.81796300  0.35604000  1
  C  54  1  0.95729400  0.82737400  0.37387700  1
  C  66  1  0.97539200  0.82860200  0.40167100  1
  C  68  1  0.98157400  0.82825400  0.42775100  1
  C  70  1  0.97946100  0.85463200  0.42808700  1
  C  76  1  0.98352700  0.61600000  0.18028500  1
  C  77  1  0.98082300  0.56290600  0.12600100  1
  C  78  1  0.96895400  0.56279000  0.17945300  1
  C  79  1  0.97531700  0.54496800  0.11667700  1
  C  80  1  0.97781000  0.53602000  0.09887000  1
  C  81  1  0.98502400  0.54470100  0.08967700  1
  C  82  1  0.99310800  0.56251900  0.09881400  1
  C  83  1  0.99006000  0.57147100  0.11665000  1
  C  84  1  0.97233800  0.62632900  0.17278700  1
  C  85  1  0.97402000  0.64415500  0.18274600  1
  C  86  1  0.99009000  0.65213600  0.20045400  1
  C  87  1  0.99950700  0.64198900  0.20806800  1
  C  88  1  0.99679400  0.62426800  0.19815600  1
  C  89  1  0.97426500  0.57185300  0.19740400  1
  C  90  1  0.97035500  0.56346300  0.20677800  1
  C  91  1  0.96124300  0.54569400  0.19857100  1
  C  92  1  0.95565200  0.53645200  0.18069500  1
  C  93  1  0.95950600  0.54490100  0.17130400  1
  C  105  1  0.97292400  0.57152900  0.17012500  1
  C  107  1  0.98016200  0.59795100  0.17046900  1
  C  109  1  0.97854600  0.57190800  0.14409400  1
  C  115  1  0.98492300  0.56271800  0.38274200  1
  C  116  1  0.98129900  0.56153300  0.43583400  1
  C  117  1  0.97204200  0.61510900  0.43594500  1
  C  118  1  0.97586800  0.57014300  0.45377300  1
  C  119  1  0.97798900  0.56127500  0.46271300  1
  C  120  1  0.98477300  0.54339900  0.45402600  1
  C  121  1  0.99264400  0.53472000  0.43620600  1
  C  122  1  0.98996900  0.54361200  0.42726200  1
  C  123  1  0.97334900  0.54489300  0.37242600  1
  C  124  1  0.97473400  0.53701500  0.35459900  1
  C  125  1  0.99089200  0.54672600  0.34660200  1
  C  126  1  0.00061900  0.56448600  0.35673600  1
  C  127  1  0.99821900  0.57230700  0.37445900  1
  C  128  1  0.98244600  0.62400100  0.42692300  1
  C  129  1  0.97784800  0.64176200  0.43529000  1
  C  130  1  0.96294100  0.65131700  0.45299600  1
  C  131  1  0.95264700  0.64267600  0.46220000  1
  C  132  1  0.95730400  0.62483900  0.45377500  1
  C  144  1  0.97555800  0.59704300  0.42721300  1
  C  146  1  0.98184900  0.57096000  0.40079200  1
  C  148  1  0.97962800  0.57063200  0.42683700  1
  C  154  1  0.98260100  0.17943700  0.56532600  1
  C  155  1  0.98523500  0.12548400  0.56459300  1
  C  156  1  0.96471700  0.17918600  0.61799700  1
  C  157  1  0.96904400  0.11599500  0.57293500  1
  C  158  1  0.97436600  0.09817600  0.56396300  1
  C  159  1  0.99865600  0.08921900  0.54638800  1
  C  160  1  0.01343600  0.09852100  0.53789600  1
  C  161  1  0.00694300  0.11632000  0.54685300  1
  C  162  1  0.97149200  0.17171300  0.54747700  1
  C  163  1  0.97321800  0.18146200  0.53939000  1
  C  164  1  0.98949400  0.19917700  0.54890600  1
  C  165  1  0.99892300  0.20701800  0.56669000  1
  C  166  1  0.99598300  0.19731300  0.57472500  1
  C  167  1  0.96582900  0.19714700  0.62669100  1
  C  168  1  0.96175000  0.20670100  0.64444400  1
  C  169  1  0.95668300  0.19867000  0.65419600  1
  C  170  1  0.95494900  0.18078700  0.64576200  1
  C  171  1  0.95889500  0.17121400  0.62792700  1
  C  183  1  0.96996900  0.16968900  0.59993900  1
  C  185  1  0.97914700  0.16981400  0.57375700  1
  C  187  1  0.97988300  0.14356000  0.57367700  1
  C  193  1  0.98286600  0.38432800  0.81929100  1
  C  194  1  0.98525300  0.43753400  0.87325700  1
  C  195  1  0.96506400  0.43726000  0.81956300  1
  C  196  1  0.96907800  0.45536400  0.88275100  1
  C  197  1  0.97432500  0.46420200  0.90056900  1
  C  198  1  0.99846300  0.45557500  0.90952200  1
  C  199  1  0.01322600  0.43778100  0.90021300  1
  C  200  1  0.00686200  0.42894700  0.88241200  1
  C  201  1  0.97158600  0.37419800  0.82700700  1
  C  202  1  0.97324300  0.35636200  0.81725400  1
  C  203  1  0.98965400  0.34816900  0.79954100  1
  C  204  1  0.99926800  0.35811500  0.79170700  1
  C  205  1  0.99637300  0.37585700  0.80141700  1
  C  206  1  0.96689000  0.42800100  0.80160200  1
  C  207  1  0.96255600  0.43620500  0.79205500  1
  C  208  1  0.95655200  0.45398200  0.80008800  1
  C  209  1  0.95417900  0.46342500  0.81797100  1
  C  210  1  0.95837400  0.45515800  0.82754000  1
  C  222  1  0.97033500  0.42869400  0.82905600  1
  C  224  1  0.97943100  0.40238100  0.82892000  1
  C  226  1  0.98001800  0.42855000  0.85518000  1
  C  232  1  0.98304600  0.43335700  0.61439200  1
  C  233  1  0.98509400  0.43412500  0.56118700  1
  C  234  1  0.96486400  0.38070600  0.56146100  1
  C  235  1  0.96875300  0.42578900  0.54335800  1
  C  236  1  0.97398500  0.43476400  0.53451500  1
  C  237  1  0.99825200  0.45234000  0.54313600  1
  C  238  1  0.01316000  0.46082800  0.56092900  1
  C  239  1  0.00682200  0.45186500  0.56976700  1
  C  240  1  0.97161700  0.45120100  0.62453100  1
  C  241  1  0.97335800  0.45927400  0.64236900  1
  C  242  1  0.99006000  0.44974900  0.65055200  1
  C  243  1  0.99986433  0.43197100  0.64059500  1
  C  244  1  0.99680800  0.42394900  0.62285400  1
  C  245  1  0.96610400  0.37200700  0.57072400  1
  C  246  1  0.96198900  0.35425500  0.56252000  1
  C  247  1  0.95675300  0.34450800  0.54473800  1
  C  248  1  0.95489100  0.35294500  0.53529200  1
  C  249  1  0.95887600  0.37078100  0.54355900  1
  C  261  1  0.97014500  0.39876500  0.57002700  1
  C  263  1  0.97946100  0.42494000  0.59634000  1
  C  265  1  0.97989700  0.42503400  0.57017400  1
  C  271  1  0.05041600  0.04417000  0.51874100  1
  C  272  1  0.16234500  0.03310300  0.51222100  1
  C  273  1  0.14223500  0.01536700  0.50424500  1
  C  274  1  0.01318500  0.00832700  0.50250800  1
  C  275  1  0.90310500  0.01948500  0.50917200  1
  C  276  1  0.92139300  0.03711100  0.51719600  1
  C  283  1  0.94019600  0.93722000  0.46143000  1
  C  284  1  0.06458700  0.06150800  0.52532600  1
  C  287  1  0.05043800  0.47295700  0.95456200  1
  C  288  1  0.16241100  0.47750600  0.96562200  1
  C  289  1  0.14236000  0.48725600  0.98336100  1
  C  290  1  0.01332500  0.49255500  0.99040700  1
  C  291  1  0.90319400  0.48806200  0.97925600  1
  C  292  1  0.92141300  0.47845500  0.96163000  1
  C  295  1  0.99387900  0.50104300  0.00829900  1
  C  296  1  0.06048500  0.51638300  0.01959600  1
  C  297  1  0.04118000  0.52368200  0.03730600  1
  C  298  1  0.95745800  0.51605600  0.04415200  1
  C  299  1  0.89146900  0.50086200  0.03266900  1
  C  300  1  0.90906100  0.49352200  0.01510700  1
  C  311  1  0.94038300  0.52264700  0.06151900  1
  C  312  1  0.06450600  0.46220800  0.93722200  1
  C  315  1  0.05012700  0.47998300  0.52573100  1
  C  316  1  0.16208500  0.48650000  0.52118400  1
  C  317  1  0.14201900  0.49447500  0.51142200  1
  C  318  1  0.01298600  0.49621200  0.50611400  1
  C  319  1  0.90288300  0.48954900  0.51060600  1
  C  320  1  0.92112700  0.48152800  0.52021100  1
  C  323  1  0.99352000  0.50563100  0.49764000  1
  C  324  1  0.06019100  0.50160500  0.48230800  1
  C  325  1  0.04090500  0.51202900  0.47502200  1
  C  326  1  0.95713300  0.52649600  0.48265300  1
  C  327  1  0.89101900  0.53018400  0.49783500  1
  C  328  1  0.90857100  0.51994600  0.50515800  1
  C  339  1  0.94027100  0.53729900  0.47609200  1
  C  340  1  0.06425100  0.47340100  0.53648700  1
  C  343  1  0.96249100  0.77799900  0.30197500  1
  C  344  1  0.85671000  0.76598400  0.29572500  1
  C  345  1  0.87514400  0.75049300  0.28040900  1
  C  346  1  0.99662800  0.74668800  0.27126400  1
  C  347  1  0.09943600  0.75897800  0.27748500  1
  C  348  1  0.08245800  0.77446700  0.29259000  1
  C  351  1  0.02028000  0.73010200  0.25737000  1
  C  352  1  0.93557100  0.72229900  0.24293100  1
  C  353  1  0.95790900  0.70515300  0.23039500  1
  C  354  1  0.06215700  0.69548300  0.23193900  1
  C  355  1  0.14704000  0.70362000  0.24622200  1
  C  356  1  0.12659400  0.72058600  0.25868400  1
  C  367  1  0.07881400  0.67822000  0.22074200  1
  C  368  1  0.95732900  0.79225900  0.31785800  1
  C  371  1  0.96408800  0.52236700  0.22070100  1
  C  372  1  0.85876300  0.52835200  0.23278600  1
  C  373  1  0.87662600  0.52847100  0.24825700  1
  C  374  1  0.99708800  0.52285900  0.25198300  1
  C  375  1  0.09929500  0.51654800  0.23961100  1
  C  376  1  0.08279900  0.51619700  0.22413000  1
  C  379  1  0.02062500  0.52554500  0.26856800  1
  C  380  1  0.93439300  0.51917400  0.27648000  1
  C  381  1  0.95673800  0.52380400  0.29363100  1
  C  382  1  0.06247300  0.53478400  0.30320500  1
  C  383  1  0.14889800  0.54064600  0.29495100  1
  C  384  1  0.12851200  0.53610900  0.27797500  1
  C  395  1  0.07903900  0.54093300  0.32048700  1
  C  396  1  0.95973600  0.52400100  0.20644000  1
  C  399  1  0.96224400  0.69673900  0.47629800  1
  C  400  1  0.85640500  0.70298800  0.47054100  1
  C  401  1  0.87479200  0.71830300  0.47036200  1
  C  402  1  0.99627900  0.72744800  0.47569200  1
  C  403  1  0.09914000  0.72123000  0.48175700  1
  C  404  1  0.08220800  0.70612500  0.48214200  1
  C  407  1  0.01990800  0.74133800  0.47299300  1
  C  408  1  0.93525100  0.75578200  0.47963300  1
  C  409  1  0.95764900  0.76832000  0.47502700  1
  C  410  1  0.06192800  0.76677600  0.46381800  1
  C  411  1  0.14673000  0.75248500  0.45766100  1
  C  412  1  0.12615500  0.74001500  0.46215100  1
  C  423  1  0.07876300  0.77798500  0.45777100  1
  C  424  1  0.95712800  0.68085600  0.47467400  1
  C  427  1  0.96245000  0.22144100  0.69965900  1
  C  428  1  0.85749600  0.23358100  0.70553700  1
  C  429  1  0.87552900  0.24921000  0.72071700  1
  C  430  1  0.99577300  0.25304200  0.73010600  1
  C  431  1  0.09758700  0.24062700  0.72428300  1
  C  432  1  0.08091200  0.22499300  0.70932700  1
  C  435  1  0.01949800  0.26974400  0.74379700  1
  C  436  1  0.93284300  0.27792600  0.75801100  1
  C  437  1  0.95517100  0.29516800  0.77026500  1
  C  438  1  0.06128200  0.30457200  0.76865400  1
  C  439  1  0.14820200  0.29605100  0.75462700  1
  C  440  1  0.12780500  0.27898300  0.74244800  1
  C  451  1  0.07778700  0.32191400  0.77949600  1
  C  452  1  0.95812400  0.20699400  0.68389100  1
  C  455  1  0.96200000  0.47667000  0.77732200  1
  C  456  1  0.85709600  0.47041300  0.76517500  1
  C  457  1  0.87535400  0.46992500  0.74953100  1
  C  458  1  0.99574600  0.47545200  0.74569700  1
  C  459  1  0.09755800  0.48203100  0.75811100  1
  C  460  1  0.08073600  0.48272100  0.77374900  1
  C  463  1  0.01954900  0.47243900  0.72899700  1
  C  464  1  0.93302700  0.47847700  0.72080700  1
  C  465  1  0.95531500  0.47346100  0.70355600  1
  C  466  1  0.06127700  0.46241800  0.69415500  1
  C  467  1  0.14804200  0.45689900  0.70267900  1
  C  468  1  0.12762600  0.46180500  0.71975000  1
  C  479  1  0.07783300  0.45591300  0.67681400  1
  C  480  1  0.95752900  0.47536100  0.79177800  1
  C  483  1  0.96239600  0.29904400  0.52203900  1
  C  484  1  0.85745100  0.29316700  0.52830400  1
  C  485  1  0.87548400  0.27799000  0.52875500  1
  C  486  1  0.99572700  0.26859800  0.52319700  1
  C  487  1  0.09753200  0.27442100  0.51660400  1
  C  488  1  0.08085600  0.28937500  0.51592300  1
  C  491  1  0.01944800  0.25491100  0.52621100  1
  C  492  1  0.93278700  0.24069600  0.52018100  1
  C  493  1  0.95509500  0.22844600  0.52517400  1
  C  494  1  0.06119100  0.23005900  0.53619200  1
  C  495  1  0.14812700  0.24408400  0.54169400  1
  C  496  1  0.12775100  0.25626000  0.53679900  1
  C  507  1  0.07765300  0.21922300  0.54269900  1
  C  508  1  0.95807400  0.31481300  0.52336200  1
  H  4  1  0.86120600  0.99143700  0.47535900  1
  H  24  1  0.83007600  0.96177500  0.45816200  1
  H  32  1  0.09024900  0.95347000  0.48975100  1
  H  55  1  0.99915800  0.90620700  0.47694100  1
  H  56  1  0.99505700  0.87600200  0.46196800  1
  H  57  1  0.97603600  0.90605300  0.43069700  1
  H  58  1  0.00602000  0.79440500  0.41347200  1
  H  59  1  0.96175400  0.83874700  0.46127400  1
  H  60  1  0.96462800  0.82171600  0.47454400  1
  H  61  1  0.00838400  0.77777400  0.42678900  1
  H  62  1  0.99342400  0.79480100  0.38103200  1
  H  63  1  0.94123300  0.82423200  0.34944900  1
  H  64  1  0.94886800  0.84026300  0.37967900  1
  H  65  1  0.98546900  0.77904200  0.35103500  1
  H  72  1  0.97074500  0.87601200  0.41565200  1
  H  94  1  0.00002900  0.56915100  0.09251300  1
  H  95  1  0.99537800  0.58439800  0.12271600  1
  H  96  1  0.97578600  0.52308000  0.09268800  1
  H  97  1  0.00473400  0.61751800  0.20431500  1
  H  98  1  0.96117800  0.62098300  0.15996900  1
  H  99  1  0.96472300  0.65128300  0.17699500  1
  H  100  1  0.00777800  0.64746600  0.22094100  1
  H  101  1  0.98144400  0.58477300  0.20399900  1
  H  102  1  0.94857200  0.52354200  0.17438600  1
  H  103  1  0.95504600  0.53777500  0.15838500  1
  H  104  1  0.97475500  0.57049800  0.21972500  1
  H  111  1  0.96988400  0.53809100  0.12272700  1
  H  133  1  0.99929200  0.52178400  0.42956800  1
  H  134  1  0.99521100  0.53675300  0.41433400  1
  H  135  1  0.97609800  0.56803000  0.47565300  1
  H  136  1  0.00638200  0.58521400  0.38120000  1
  H  137  1  0.96213900  0.53743100  0.37778200  1
  H  138  1  0.96524300  0.52413700  0.34748200  1
  H  139  1  0.00895900  0.57187300  0.35125000  1
  H  140  1  0.99373900  0.61768000  0.41404900  1
  H  141  1  0.94104200  0.64926700  0.47505600  1
  H  142  1  0.94878100  0.61903800  0.46086200  1
  H  143  1  0.98567900  0.64767800  0.42828400  1
  H  150  1  0.97083100  0.58307200  0.46065400  1
  H  172  1  0.02736800  0.09240200  0.52507200  1
  H  173  1  0.01866700  0.12249200  0.54015800  1
  H  174  1  0.96146900  0.09176800  0.57041800  1
  H  175  1  0.00396900  0.20361300  0.58763700  1
  H  176  1  0.96011700  0.15888200  0.54015000  1
  H  177  1  0.96390800  0.17554700  0.52650100  1
  H  178  1  0.00735300  0.21990300  0.57393100  1
  H  179  1  0.97018900  0.20363200  0.62023400  1
  H  180  1  0.95100000  0.17460700  0.65251100  1
  H  181  1  0.95771400  0.15829500  0.62228000  1
  H  182  1  0.96335700  0.21964800  0.65020600  1
  H  189  1  0.95185700  0.12193500  0.58569500  1
  H  211  1  0.02718300  0.43107100  0.90632700  1
  H  212  1  0.01860200  0.41608100  0.87623600  1
  H  213  1  0.96148400  0.47706600  0.90698300  1
  H  214  1  0.00447900  0.38247200  0.79512200  1
  H  215  1  0.96011700  0.37969800  0.83983600  1
  H  216  1  0.96383100  0.34938400  0.82316400  1
  H  217  1  0.00777800  0.35247600  0.77882200  1
  H  218  1  0.97190700  0.41506400  0.79511700  1
  H  219  1  0.94943400  0.47634900  0.82415300  1
  H  220  1  0.95659700  0.46242400  0.84045900  1
  H  221  1  0.96460800  0.42902700  0.77910800  1
  H  228  1  0.95199200  0.46219000  0.87681600  1
  H  250  1  0.02721200  0.47365000  0.56763400  1
  H  251  1  0.01866800  0.45855400  0.58263000  1
  H  252  1  0.96108800  0.42831200  0.52165300  1
  H  253  1  0.00501500  0.41103900  0.61623200  1
  H  254  1  0.95992700  0.45853400  0.61903900  1
  H  255  1  0.96377700  0.47215900  0.64935300  1
  H  256  1  0.00843500  0.42471800  0.64622400  1
  H  257  1  0.97058600  0.37846100  0.58366500  1
  H  258  1  0.95080500  0.34620000  0.52236400  1
  H  259  1  0.95758900  0.37643100  0.53629100  1
  H  260  1  0.96368600  0.34848800  0.56970100  1
  H  267  1  0.95163600  0.41302700  0.53653500  1
  H  277  1  0.80798300  0.01483400  0.50798400  1
  H  278  1  0.83843600  0.04472200  0.52140300  1
  H  279  1  0.22301800  0.00751000  0.49909500  1
  H  285  1  0.88660800  0.93337000  0.45092500  1
  H  286  1  0.12765600  0.06553000  0.51964500  1
  H  293  1  0.80809300  0.49153000  0.98391300  1
  H  294  1  0.83844200  0.47506400  0.95402300  1
  H  301  1  0.09038300  0.53469900  0.04524500  1
  H  302  1  0.83049100  0.49479300  0.03698200  1
  H  303  1  0.86158100  0.48230500  0.00731800  1
  H  304  1  0.22319300  0.48997900  0.99121200  1
  H  313  1  0.88636700  0.51603100  0.06537700  1
  H  314  1  0.12760000  0.45250600  0.93319300  1
  H  321  1  0.80777300  0.49073800  0.50714000  1
  H  322  1  0.83814700  0.47732300  0.52361400  1
  H  329  1  0.09025900  0.50897300  0.46402100  1
  H  330  1  0.83002200  0.54056300  0.50390700  1
  H  331  1  0.86105000  0.52336200  0.51636900  1
  H  332  1  0.22281900  0.49962000  0.50871400  1
  H  341  1  0.88676800  0.54781100  0.48275100  1
  H  342  1  0.12731000  0.47908400  0.54619100  1
  H  349  1  0.18950000  0.75650900  0.27133200  1
  H  350  1  0.16120800  0.78277500  0.29707700  1
  H  357  1  0.89486400  0.69964300  0.22018700  1
  H  358  1  0.22252200  0.69709300  0.24805300  1
  H  359  1  0.18715300  0.72570400  0.26915200  1
  H  360  1  0.80100400  0.74155800  0.27642700  1
  H  369  1  0.15945700  0.67253300  0.22207900  1
  H  370  1  0.96415200  0.80369600  0.31911200  1
  H  377  1  0.18869500  0.51267200  0.24202100  1
  H  378  1  0.16132900  0.51222300  0.21578400  1
  H  385  1  0.89241500  0.51933100  0.29922700  1
  H  386  1  0.22549700  0.54883600  0.30140400  1
  H  387  1  0.19022000  0.54127800  0.27278200  1
  H  388  1  0.80304200  0.53361700  0.25725300  1
  H  397  1  0.15955700  0.54799600  0.32615300  1
  H  398  1  0.96724100  0.51382900  0.19500300  1
  H  405  1  0.18920500  0.72738100  0.48543300  1
  H  406  1  0.16099800  0.70163900  0.48595900  1
  H  413  1  0.89467300  0.77853500  0.47973300  1
  H  414  1  0.22224600  0.75065400  0.44930800  1
  H  415  1  0.18676200  0.72955100  0.45681100  1
  H  416  1  0.80061300  0.72228500  0.46541300  1
  H  425  1  0.15961700  0.77667400  0.45078800  1
  H  426  1  0.96386600  0.67960300  0.48485900  1
  H  433  1  0.18684700  0.24311000  0.73060900  1
  H  434  1  0.15922100  0.21661100  0.70511400  1
  H  441  1  0.89050300  0.30095400  0.78027800  1
  H  442  1  0.22514000  0.30236400  0.75275000  1
  H  443  1  0.18990600  0.27358200  0.73212800  1
  H  444  1  0.80225100  0.25822400  0.72438600  1
  H  453  1  0.15826000  0.32748800  0.77795200  1
  H  454  1  0.96839700  0.19566300  0.68281800  1
  H  461  1  0.18688700  0.48586300  0.75563200  1
  H  462  1  0.15893600  0.48690600  0.78214800  1
  H  469  1  0.89083400  0.47771000  0.69777200  1
  H  470  1  0.22490000  0.44869300  0.69636900  1
  H  471  1  0.18963400  0.45688400  0.72515900  1
  H  472  1  0.80201500  0.46460700  0.74052200  1
  H  481  1  0.15830000  0.44879100  0.67124300  1
  H  482  1  0.96885400  0.48560400  0.80309700  1
  H  489  1  0.18679200  0.26809500  0.51275900  1
  H  490  1  0.15916100  0.29358900  0.51175400  1
  H  497  1  0.89041300  0.21843400  0.52094900  1
  H  498  1  0.22505600  0.24596200  0.54988500  1
  H  499  1  0.18986000  0.26657900  0.54171700  1
  H  500  1  0.80221500  0.27432100  0.53410200  1
  H  509  1  0.15806400  0.22077400  0.54982700  1
  H  510  1  0.96829300  0.31588600  0.51310300  1
  N  5  1  0.14269500  0.98570900  0.51169200  1
  N  67  1  0.97827500  0.82037000  0.41059500  1
  N  69  1  0.98205600  0.84548800  0.43621000  1
  N  71  1  0.97600700  0.84580100  0.41082300  1
  N  73  1  0.95936600  0.79012100  0.33073400  1
  N  74  1  0.98834800  0.78867700  0.45914200  1
  N  75  1  0.98965900  0.92590800  0.46438100  1
  N  106  1  0.97603200  0.58868400  0.17835500  1
  N  108  1  0.98127400  0.58917400  0.15323500  1
  N  110  1  0.97433000  0.56348000  0.15292800  1
  N  112  1  0.95899100  0.53900800  0.20855400  1
  N  113  1  0.98845300  0.66891700  0.21003000  1
  N  114  1  0.99022600  0.53688800  0.07282300  1
  N  145  1  0.97851400  0.58811600  0.41005800  1
  N  147  1  0.98229500  0.56250600  0.40957300  1
  N  149  1  0.97614200  0.58789600  0.43526700  1
  N  151  1  0.95929500  0.66798000  0.45966100  1
  N  152  1  0.98910300  0.53949400  0.32981700  1
  N  153  1  0.98972900  0.53434600  0.46182800  1
  N  184  1  0.97305800  0.17781200  0.59090000  1
  N  186  1  0.98252600  0.15260100  0.56545300  1
  N  188  1  0.97363900  0.15247400  0.59092700  1
  N  190  1  0.95480600  0.20882700  0.67083300  1
  N  191  1  0.98789200  0.20850600  0.54143300  1
  N  192  1  0.99991033  0.07237100  0.53852500  1
  N  223  1  0.97343400  0.41153200  0.82092700  1
  N  225  1  0.98269100  0.41128500  0.84613200  1
  N  227  1  0.97385900  0.43689100  0.84627000  1
  N  229  1  0.95421500  0.46046700  0.78993600  1
  N  230  1  0.98800200  0.33136800  0.79020600  1
  N  231  1  0.99974200  0.46455400  0.92636900  1
  N  262  1  0.97336900  0.40779700  0.58718800  1
  N  264  1  0.98268600  0.43325000  0.58743700  1
  N  266  1  0.97365900  0.40778400  0.56183200  1
  N  268  1  0.95484100  0.32787000  0.53825400  1
  N  269  1  0.98828900  0.45720300  0.66735400  1
  N  270  1  0.99951900  0.46020300  0.53415100  1
  N  280  1  0.29258600  0.03987500  0.51364400  1
  N  305  1  0.14276700  0.52437400  0.01299800  1
  N  306  1  0.29264100  0.47216800  0.95883900  1
  N  333  1  0.14259400  0.48702700  0.47431700  1
  N  334  1  0.29230600  0.48507600  0.52653800  1
  N  361  1  0.83109200  0.73182900  0.24120200  1
  N  362  1  0.73616600  0.76946100  0.30509100  1
  N  389  1  0.82828400  0.50816900  0.26705900  1
  N  390  1  0.73924600  0.53451500  0.22940600  1
  N  417  1  0.83079200  0.75751500  0.49089600  1
  N  418  1  0.73586100  0.69362100  0.46465900  1
  N  445  1  0.82628100  0.26868600  0.75979500  1
  N  446  1  0.73815900  0.23009700  0.69594500  1
  N  473  1  0.82666100  0.48953700  0.73005000  1
  N  474  1  0.73756800  0.46435000  0.76867200  1
  N  501  1  0.82623200  0.23891100  0.50915600  1
  N  502  1  0.73811900  0.30276200  0.53441500  1
  O  6  1  0.26123600  0.98053800  0.50794800  1
  O  7  1  0.09929100  0.98175100  0.52218400  1
  O  281  1  0.34447300  0.03487400  0.49935900  1
  O  282  1  0.36863800  0.03594800  0.52212200  1
  O  307  1  0.26133300  0.52581200  0.01816500  1
  O  308  1  0.34464800  0.46288200  0.96383000  1
  O  309  1  0.09927500  0.53881600  0.01694600  1
  O  310  1  0.36861400  0.48457900  0.96276900  1
  O  335  1  0.26115100  0.49077200  0.47289700  1
  O  336  1  0.34420200  0.49936100  0.53582100  1
  O  337  1  0.09922500  0.47653800  0.45986500  1
  O  338  1  0.36837300  0.47659700  0.51413600  1
  O  363  1  0.71847900  0.72531300  0.24039300  1
  O  364  1  0.63747200  0.76955300  0.29658900  1
  O  365  1  0.84678800  0.73308200  0.22820100  1
  O  366  1  0.71501900  0.75878800  0.30971000  1
  O  391  1  0.71644200  0.51418400  0.27364300  1
  O  392  1  0.63922900  0.52613700  0.22937400  1
  O  393  1  0.84139100  0.49390800  0.26586600  1
  O  394  1  0.72013600  0.54985100  0.24009700  1
  O  419  1  0.71817800  0.75833400  0.48519500  1
  O  420  1  0.63719000  0.70212100  0.47325900  1
  O  421  1  0.84655600  0.77051300  0.50515100  1
  O  422  1  0.71463500  0.68900000  0.44936800  1
  O  447  1  0.71466400  0.27522200  0.76014800  1
  O  448  1  0.63780100  0.23030600  0.70435800  1
  O  449  1  0.83867200  0.26783100  0.77305900  1
  O  450  1  0.71983700  0.24057300  0.69100300  1
  O  475  1  0.71494000  0.48338400  0.72352900  1
  O  476  1  0.63740600  0.47257200  0.76844100  1
  O  477  1  0.83933800  0.50364500  0.73088600  1
  O  478  1  0.71903500  0.44893300  0.75821600  1
  O  503  1  0.71460800  0.23856000  0.51533700  1
  O  504  1  0.63775100  0.29434800  0.52621300  1
  O  505  1  0.83862100  0.22564500  0.49503800  1
  O  506  1  0.71982100  0.30770400  0.54983200  1
