# generated using pymatgen
data_H24C43(NO)8
_symmetry_space_group_name_H-M   'P 1'
_cell_length_a   20.61025000
_cell_length_b   20.61025000
_cell_length_c   34.98850000
_cell_angle_alpha   90.00000000
_cell_angle_beta   90.00000000
_cell_angle_gamma   120.00000000
_symmetry_Int_Tables_number   1
_chemical_formula_structural   H24C43(NO)8
_chemical_formula_sum   'H72 C129 N24 O24'
_cell_volume   12871.30185320
_cell_formula_units_Z   3
loop_
 _symmetry_equiv_pos_site_id
 _symmetry_equiv_pos_as_xyz
  1  'x, y, z'
loop_
 _atom_site_type_symbol
 _atom_site_label
 _atom_site_symmetry_multiplicity
 _atom_site_fract_x
 _atom_site_fract_y
 _atom_site_fract_z
 _atom_site_occupancy
  C  1  1  0.68254050  0.64939550  0.97068300  1
  C  2  1  0.64491200  0.69136700  0.97227200  1
  C  3  1  0.56605400  0.61471700  0.02738400  1
  C  4  1  0.59407050  0.56441650  0.02382000  1
  C  5  1  0.56219900  0.50109400  0.04880300  1
  C  6  1  0.50713950  0.48915550  0.07670100  1
  C  7  1  0.48604500  0.54389600  0.08102200  1
  C  8  1  0.51364900  0.60484200  0.05605900  1
  C  9  1  0.66019200  0.74836300  0.94539800  1
  C  10  1  0.71268050  0.76498950  0.91637900  1
  C  11  1  0.75472650  0.72839450  0.91484300  1
  C  12  1  0.73910550  0.67110150  0.94204800  1
  C  13  1  0.72518800  0.59933800  0.02381800  1
  C  14  1  0.75319500  0.54902700  0.02737900  1
  C  15  1  0.67434450  0.47238850  0.97226300  1
  C  16  1  0.63669600  0.51434800  0.97068400  1
  C  17  1  0.65907600  0.41541000  0.94538200  1
  C  18  1  0.60657150  0.39876750  0.91637100  1
  C  19  1  0.56450500  0.43534000  0.91484400  1
  C  20  1  0.58015250  0.49265650  0.94204000  1
  C  21  1  0.75707150  0.66266250  0.04879700  1
  C  22  1  0.81212500  0.67458700  0.07669500  1
  C  23  1  0.83320750  0.61983950  0.08101900  1
  C  24  1  0.80559850  0.55889450  0.05605400  1
  C  37  1  0.65962450  0.58187250  0.99702900  1
  C  38  1  0.73028750  0.48453950  0.00175600  1
  C  41  1  0.58896400  0.67921000  0.00176500  1
  C  48  1  0.20424350  0.55897850  0.30400600  1
  C  49  1  0.28384450  0.59659450  0.30560400  1
  C  50  1  0.28605100  0.67542900  0.36072800  1
  C  51  1  0.20774150  0.64744750  0.35714700  1
  C  52  1  0.17629500  0.67930700  0.38214100  1
  C  53  1  0.21941550  0.73435150  0.41004400  1
  C  54  1  0.29524100  0.75542200  0.41437700  1
  C  55  1  0.32858200  0.72781900  0.38940900  1
  C  56  1  0.32556100  0.58131100  0.27873000  1
  C  57  1  0.28970150  0.52883550  0.24970600  1
  C  58  1  0.21106100  0.48680100  0.24816200  1
  C  59  1  0.16938750  0.50242650  0.27536800  1
  C  60  1  0.11153600  0.51631900  0.35713500  1
  C  61  1  0.03322300  0.48832800  0.36071100  1
  C  62  1  0.03544100  0.56719000  0.30559300  1
  C  63  1  0.11504450  0.60482950  0.30401200  1
  C  64  1  0.99372900  0.58245700  0.27871000  1
  C  65  1  0.02959850  0.63496550  0.24970000  1
  C  66  1  0.10823550  0.67702950  0.24817700  1
  C  67  1  0.14990450  0.66139350  0.27537700  1
  C  68  1  0.14297650  0.48445850  0.38213200  1
  C  69  1  0.09984800  0.42940000  0.41002700  1
  C  70  1  0.02401600  0.40831200  0.41434800  1
  C  71  1  0.99068000  0.43591900  0.38938000  1
  C  84  1  0.15964000  0.58189400  0.33035800  1
  C  85  1  0.99164300  0.51122900  0.33507900  1
  C  88  1  0.32763400  0.65252100  0.33510500  1
  C  95  1  0.59210000  0.03727900  0.63735000  1
  C  96  1  0.55012500  0.95767700  0.63893600  1
  C  97  1  0.62677550  0.95545950  0.69404800  1
  C  98  1  0.67707550  0.03377850  0.69048700  1
  C  99  1  0.74040050  0.06522450  0.71546700  1
  C  100  1  0.75234850  0.02209850  0.74335700  1
  C  101  1  0.69761350  0.94625950  0.74767600  1
  C  102  1  0.63665500  0.91292300  0.72271800  1
  C  103  1  0.49314900  0.91596800  0.61205300  1
  C  104  1  0.47650000  0.95183800  0.58304600  1
  C  105  1  0.51309250  0.03047650  0.58151700  1
  C  106  1  0.57038150  0.07214650  0.60872600  1
  C  107  1  0.64215600  0.12997600  0.69048700  1
  C  108  1  0.69246150  0.20829350  0.69405100  1
  C  109  1  0.76910400  0.20608500  0.63893300  1
  C  110  1  0.72714550  0.12647950  0.63735300  1
  C  111  1  0.82608050  0.24779950  0.61205000  1
  C  112  1  0.84272050  0.21193550  0.58303800  1
  C  113  1  0.80613600  0.13329500  0.58150600  1
  C  114  1  0.74884550  0.09162450  0.60871500  1
  C  115  1  0.57883250  0.09852950  0.71546900  1
  C  116  1  0.56690650  0.14165050  0.74337200  1
  C  117  1  0.62164050  0.21748850  0.74768900  1
  C  118  1  0.68258500  0.25082900  0.72272300  1
  C  131  1  0.65962050  0.08187950  0.66369800  1
  C  132  1  0.75694500  0.24987900  0.66842300  1
  C  135  1  0.56229150  0.91387850  0.66842000  1
  C  142  1  0.48693600  0.31790900  0.84328300  1
  C  143  1  0.49650400  0.31527200  0.80317000  1
  C  144  1  0.49173450  0.25037050  0.78626600  1
  C  145  1  0.48108100  0.18828800  0.80830800  1
  C  146  1  0.47117950  0.19084350  0.84842000  1
  C  148  1  0.47241100  0.25428100  0.86507000  1
  C  156  1  0.47871250  0.37551550  0.85958200  1
  C  158  1  0.46811400  0.12164600  0.79070700  1
  C  160  1  0.06841600  0.75462200  0.17659600  1
  C  161  1  0.05618050  0.74500850  0.13649400  1
  C  162  1  0.99602200  0.74975000  0.11960300  1
  C  163  1  0.94453350  0.76032150  0.14164800  1
  C  164  1  0.95708250  0.77031550  0.18175200  1
  C  166  1  0.01932100  0.76913600  0.19840000  1
  C  174  1  0.13423000  0.76285400  0.19292400  1
  C  176  1  0.89090250  0.77334450  0.12404700  1
  C  178  1  0.92361400  0.17313900  0.50996200  1
  C  179  1  0.92621350  0.18533150  0.46984900  1
  C  180  1  0.99110550  0.24547850  0.45294900  1
  C  181  1  0.05316950  0.29699650  0.47498000  1
  C  182  1  0.05062550  0.28449250  0.51509000  1
  C  184  1  0.98721250  0.22227950  0.53175000  1
  C  192  1  0.86598550  0.10731650  0.52625900  1
  C  194  1  0.11982100  0.35060100  0.45736800  1
  C  196  1  0.83231700  0.84584800  0.84329000  1
  C  197  1  0.82277950  0.84850050  0.80317500  1
  C  198  1  0.82753750  0.91340050  0.78627400  1
  C  199  1  0.83814500  0.97547400  0.80831800  1
  C  200  1  0.84805300  0.97290300  0.84842600  1
  C  202  1  0.84682650  0.90946850  0.86507700  1
  C  210  1  0.84054100  0.78824400  0.85959000  1
  C  212  1  0.85115550  0.04209550  0.79068400  1
  C  214  1  0.25091850  0.40921150  0.17660800  1
  C  215  1  0.26311900  0.41877300  0.13649400  1
  C  216  1  0.32324750  0.41399150  0.11958900  1
  C  217  1  0.37467250  0.40333350  0.14163300  1
  C  218  1  0.36221900  0.39344000  0.18174600  1
  C  220  1  0.30001700  0.39468200  0.19839500  1
  C  228  1  0.18509100  0.40099700  0.19290700  1
  C  230  1  0.42834200  0.39036200  0.12403300  1
  C  232  1  0.39567300  0.99065900  0.50994000  1
  C  233  1  0.39306750  0.97842150  0.46983800  1
  C  234  1  0.32816950  0.91826650  0.45294400  1
  C  235  1  0.26609950  0.86678050  0.47498200  1
  C  236  1  0.26864300  0.87933300  0.51509000  1
  C  238  1  0.33205950  0.94156750  0.53173800  1
  C  246  1  0.45325050  0.05647250  0.52627100  1
  C  248  1  0.19944500  0.81315900  0.45737900  1
  H  25  1  0.86907900  0.62356300  0.10206900  1
  H  26  1  0.82390750  0.52121550  0.05918900  1
  H  27  1  0.68753650  0.38646050  0.94616500  1
  H  28  1  0.59988600  0.35964500  0.89660100  1
  H  29  1  0.55126450  0.52100450  0.94021500  1
  H  30  1  0.73897800  0.70062200  0.04695100  1
  H  31  1  0.58027550  0.46311950  0.04694200  1
  H  32  1  0.45016900  0.54016300  0.10207200  1
  H  33  1  0.49533300  0.64251700  0.05919500  1
  H  34  1  0.76796500  0.64272800  0.94021000  1
  H  35  1  0.63172950  0.77730550  0.94617900  1
  H  36  1  0.71936350  0.80410850  0.89660900  1
  H  39  1  0.78096750  0.49234550  0.98743300  1
  H  40  1  0.70754550  0.43360750  0.01911900  1
  H  42  1  0.53828700  0.67140900  0.98744000  1
  H  43  1  0.61170200  0.73013900  0.01913000  1
  H  72  1  0.99185550  0.37240950  0.43538700  1
  H  73  1  0.93469300  0.41760600  0.39251300  1
  H  74  1  0.93632550  0.55399550  0.27949000  1
  H  75  1  0.99716550  0.64165550  0.22993100  1
  H  76  1  0.20713850  0.69025250  0.27354800  1
  H  77  1  0.19902600  0.50252800  0.38027400  1
  H  78  1  0.12024950  0.66124850  0.38027700  1
  H  79  1  0.32739200  0.79130500  0.43542100  1
  H  80  1  0.38456650  0.74612050  0.39255000  1
  H  81  1  0.11215350  0.47357350  0.27352500  1
  H  82  1  0.38296750  0.60976350  0.27951600  1
  H  83  1  0.32214100  0.52215100  0.22993600  1
  H  86  1  0.94878250  0.46055250  0.32075200  1
  H  87  1  0.96343950  0.53395950  0.35244200  1
  H  89  1  0.37052250  0.70320250  0.32078900  1
  H  90  1  0.35580500  0.62976300  0.35247100  1
  H  119  1  0.61791350  0.24963550  0.76873900  1
  H  120  1  0.72025850  0.30681850  0.72585600  1
  H  121  1  0.85502650  0.30520650  0.61283300  1
  H  122  1  0.88183450  0.24437050  0.56326600  1
  H  123  1  0.72047400  0.03438900  0.60688000  1
  H  124  1  0.54087450  0.04247450  0.71362100  1
  H  125  1  0.77837600  0.12127400  0.71360900  1
  H  126  1  0.70136350  0.91410350  0.76871200  1
  H  127  1  0.59899850  0.85692650  0.72584100  1
  H  128  1  0.59877750  0.12937750  0.60688300  1
  H  129  1  0.46417850  0.85856350  0.61284200  1
  H  130  1  0.43737250  0.91940550  0.56327700  1
  H  133  1  0.74912650  0.29274150  0.65409800  1
  H  134  1  0.80787750  0.27808150  0.68578600  1
  H  136  1  0.57010900  0.87102000  0.65409000  1
  H  137  1  0.51136050  0.88567050  0.68578300  1
  H  147  1  0.49520150  0.24842850  0.75712700  1
  H  149  1  0.46179200  0.25336000  0.89372900  1
  H  157  1  0.44105100  0.38517400  0.84716700  1
  H  159  1  0.42212250  0.07557650  0.79905900  1
  H  165  1  0.99059050  0.74625250  0.09046800  1
  H  167  1  0.02903550  0.77977750  0.22705500  1
  H  175  1  0.18155950  0.80051750  0.18051700  1
  H  177  1  0.89084150  0.81934150  0.13240700  1
  H  183  1  0.99303250  0.25088850  0.42381100  1
  H  185  1  0.98815100  0.21257700  0.56040700  1
  H  193  1  0.85633250  0.05999150  0.51385200  1
  H  195  1  0.16587250  0.35064350  0.46571900  1
  H  201  1  0.82410500  0.91535300  0.75713400  1
  H  203  1  0.85744500  0.91039400  0.89373700  1
  H  211  1  0.87821650  0.77859650  0.84718200  1
  H  213  1  0.89716200  0.08815900  0.79902600  1
  H  219  1  0.32865500  0.41745500  0.09045100  1
  H  221  1  0.29032000  0.38406600  0.22705500  1
  H  229  1  0.13776950  0.36333350  0.18049500  1
  H  231  1  0.42841750  0.34436750  0.13238400  1
  H  237  1  0.32624100  0.91283300  0.42380800  1
  H  239  1  0.33112450  0.95128250  0.56039600  1
  H  247  1  0.46290750  0.10379950  0.51386700  1
  H  249  1  0.15339200  0.81311500  0.46573100  1
  N  44  1  0.51234350  0.41914550  0.88819000  1
  N  45  1  0.80690350  0.74460850  0.88819400  1
  N  46  1  0.47840900  0.42789600  0.09843900  1
  N  47  1  0.84084650  0.73584050  0.09844200  1
  N  91  1  0.14420800  0.72921000  0.22153100  1
  N  92  1  0.17509900  0.43463600  0.22151100  1
  N  93  1  0.18688950  0.76309250  0.43178000  1
  N  94  1  0.13237200  0.40066000  0.43176500  1
  N  138  1  0.82234700  0.09733000  0.55486000  1
  N  139  1  0.49687750  0.06644950  0.55487400  1
  N  140  1  0.81362450  0.05462350  0.76508600  1
  N  141  1  0.50564950  0.10911750  0.76511300  1
  N  150  1  0.45829750  0.12879350  0.87135100  1
  N  151  1  0.50933000  0.37741200  0.78034900  1
  N  168  1  0.90792650  0.78319650  0.20469100  1
  N  169  1  0.10550600  0.73220200  0.11367300  1
  N  186  1  0.11267800  0.33367100  0.53801400  1
  N  187  1  0.86408350  0.13599750  0.44703000  1
  N  204  1  0.86095050  0.03496450  0.87135000  1
  N  205  1  0.80998750  0.78637750  0.78035000  1
  N  222  1  0.41138000  0.38055100  0.20467700  1
  N  223  1  0.21380850  0.43160150  0.11367300  1
  N  240  1  0.20659550  0.83017650  0.53802300  1
  N  241  1  0.45520300  0.02774500  0.44701900  1
  O  152  1  0.50837200  0.14720800  0.89630000  1
  O  153  1  0.57123800  0.40497300  0.76334900  1
  O  154  1  0.45839800  0.35980400  0.75599200  1
  O  155  1  0.39559400  0.09981800  0.88762500  1
  O  170  1  0.87631550  0.73315650  0.22965900  1
  O  171  1  0.07117000  0.67028400  0.09668100  1
  O  172  1  0.13878950  0.78312150  0.08930800  1
  O  173  1  0.94164300  0.84592900  0.22093900  1
  O  188  1  0.09426100  0.36531200  0.56297400  1
  O  189  1  0.83649600  0.17032200  0.43003100  1
  O  190  1  0.88171700  0.10269800  0.42267100  1
  O  191  1  0.14168900  0.29996500  0.55427700  1
  O  206  1  0.81088950  0.01656450  0.89630400  1
  O  207  1  0.74809150  0.75880950  0.76333700  1
  O  208  1  0.86093950  0.80401150  0.75600300  1
  O  209  1  0.92366200  0.06394300  0.88761600  1
  O  224  1  0.44304550  0.43062950  0.22962500  1
  O  225  1  0.24816100  0.49350600  0.09667000  1
  O  226  1  0.18048300  0.38066800  0.08931900  1
  O  227  1  0.37764750  0.31785150  0.22095300  1
  O  242  1  0.22501550  0.79856550  0.56299700  1
  O  243  1  0.48278650  0.99340750  0.43003100  1
  O  244  1  0.43757400  0.06103200  0.42265100  1
  O  245  1  0.17758050  0.86389850  0.55426500  1
