# generated using pymatgen
data_H9C16N4O3
_symmetry_space_group_name_H-M   'P 1'
_cell_length_a   36.30280000
_cell_length_b   36.30280000
_cell_length_c   44.71810000
_cell_angle_alpha   90.00000000
_cell_angle_beta   90.00000000
_cell_angle_gamma   90.00000000
_symmetry_Int_Tables_number   1
_chemical_formula_structural   H9C16N4O3
_chemical_formula_sum   'H144 C256 N64 O48'
_cell_volume   58933.68383496
_cell_formula_units_Z   16
loop_
 _symmetry_equiv_pos_site_id
 _symmetry_equiv_pos_as_xyz
  1  'x, y, z'
loop_
 _atom_site_type_symbol
 _atom_site_label
 _atom_site_symmetry_multiplicity
 _atom_site_fract_x
 _atom_site_fract_y
 _atom_site_fract_z
 _atom_site_occupancy
  H  7  1  0.09334100  0.27764800  0.13727000  1
  H  16  1  0.99918700  0.27203000  0.07764900  1
  H  19  1  0.05000800  0.34272500  0.05100400  1
  H  20  1  0.13206400  0.26883800  0.06963000  1
  H  21  1  0.09912700  0.40931000  0.14697300  1
  H  22  1  0.03539300  0.15161500  0.04743600  1
  H  33  1  0.91584900  0.73058200  0.13705800  1
  H  42  1  0.00950700  0.73474700  0.07472100  1
  H  45  1  0.96175700  0.66572200  0.05117500  1
  H  46  1  0.87657400  0.74163100  0.07218000  1
  H  47  1  0.91177500  0.59865000  0.14689300  1
  H  48  1  0.96641000  0.85569100  0.03672800  1
  H  59  1  0.27783500  0.91586000  0.87163800  1
  H  68  1  0.27216100  0.00983100  0.93151100  1
  H  71  1  0.34260400  0.95901900  0.95811600  1
  H  72  1  0.26852600  0.87687700  0.93890900  1
  H  73  1  0.40954100  0.90992400  0.86223300  1
  H  74  1  0.15141000  0.97379200  0.96109900  1
  H  85  1  0.73060100  0.09364800  0.87201400  1
  H  94  1  0.73730900  0.99884800  0.93126700  1
  H  97  1  0.66635300  0.04588500  0.95768600  1
  H  98  1  0.73962800  0.13173700  0.93949400  1
  H  99  1  0.59868300  0.09730900  0.86249000  1
  H  100  1  0.85739300  0.03567300  0.96159100  1
  H  111  1  0.59000600  0.23123200  0.63901700  1
  H  120  1  0.49846300  0.23731800  0.57780400  1
  H  123  1  0.55065100  0.16715200  0.55063800  1
  H  124  1  0.63153800  0.24058800  0.57062100  1
  H  125  1  0.59634700  0.09890200  0.64742500  1
  H  126  1  0.53521200  0.35767200  0.54763700  1
  H  137  1  0.41711900  0.77780700  0.63856500  1
  H  146  1  0.51024100  0.77226800  0.57844600  1
  H  149  1  0.46165800  0.84324000  0.55203600  1
  H  150  1  0.37727600  0.76932300  0.57055700  1
  H  151  1  0.41326800  0.91034000  0.64990500  1
  H  152  1  0.47371000  0.65223300  0.54743800  1
  H  163  1  0.77790400  0.59041100  0.37013900  1
  H  172  1  0.77175500  0.49889800  0.43132200  1
  H  175  1  0.84188500  0.55101200  0.45854600  1
  H  176  1  0.76850800  0.63195100  0.43863900  1
  H  177  1  0.91025400  0.59651000  0.36170100  1
  H  178  1  0.65136800  0.53563600  0.46141500  1
  H  189  1  0.23133700  0.41742200  0.37063100  1
  H  198  1  0.23692100  0.51055200  0.43088600  1
  H  201  1  0.16585000  0.46192500  0.45715500  1
  H  202  1  0.23971600  0.37760100  0.43859000  1
  H  203  1  0.09880600  0.41338100  0.35933800  1
  H  204  1  0.35706600  0.47382800  0.46140400  1
  H  219  1  0.99000500  0.55979900  0.19078300  1
  H  220  1  0.01338600  0.46242700  0.05675400  1
  H  221  1  0.00133500  0.52596500  0.04746600  1
  H  223  1  0.01005300  0.45437000  0.16300800  1
  H  225  1  0.99839900  0.41531700  0.12470800  1
  H  227  1  0.99471900  0.59084100  0.06576800  1
  H  238  1  0.55987100  0.01910200  0.81831500  1
  H  239  1  0.46269100  0.99551700  0.95240900  1
  H  240  1  0.52626800  0.00746300  0.96164200  1
  H  242  1  0.45447700  0.99906000  0.84616800  1
  H  244  1  0.41545200  0.01061200  0.88446800  1
  H  246  1  0.59112700  0.01405400  0.94329400  1
  H  257  1  0.51706400  0.94589900  0.68906800  1
  H  258  1  0.50299400  0.04801300  0.55692700  1
  H  259  1  0.49087600  0.98436700  0.54797700  1
  H  261  1  0.51875800  0.05339700  0.66257500  1
  H  263  1  0.49825000  0.09306700  0.62587600  1
  H  265  1  0.49240200  0.91826200  0.56609500  1
  H  276  1  0.06317500  0.51694900  0.32011900  1
  H  277  1  0.96101300  0.50318400  0.45224400  1
  H  278  1  0.02463700  0.49099200  0.46121400  1
  H  280  1  0.95567800  0.51882200  0.34658000  1
  H  282  1  0.91592000  0.49853400  0.38327700  1
  H  284  1  0.09074500  0.49244100  0.44313400  1
  H  295  1  0.08481000  0.47001300  0.29251200  1
  H  296  1  0.16067300  0.31327300  0.22613000  1
  H  297  1  0.19360800  0.33027700  0.27015700  1
  H  299  1  0.06597300  0.40401000  0.22053300  1
  H  301  1  0.07160800  0.34581600  0.20515400  1
  H  303  1  0.20747100  0.37537000  0.31123200  1
  H  314  1  0.92369100  0.53425600  0.29205400  1
  H  315  1  0.85075700  0.69372000  0.22659100  1
  H  316  1  0.81792800  0.67725600  0.27075800  1
  H  318  1  0.94231200  0.60012700  0.21953500  1
  H  320  1  0.93858500  0.65812000  0.20416400  1
  H  322  1  0.80309400  0.63201400  0.31131700  1
  H  333  1  0.47001000  0.92428300  0.71655100  1
  H  334  1  0.31329800  0.84852100  0.78311000  1
  H  335  1  0.33023900  0.81552300  0.73909500  1
  H  337  1  0.40404000  0.94322700  0.78855100  1
  H  339  1  0.34578300  0.93760700  0.80395600  1
  H  341  1  0.37528800  0.80161500  0.69800800  1
  H  352  1  0.53415700  0.08538600  0.71713300  1
  H  353  1  0.69359300  0.15853700  0.78248000  1
  H  354  1  0.67705700  0.19132300  0.73830700  1
  H  356  1  0.60009600  0.06690300  0.78963800  1
  H  358  1  0.65817700  0.07069200  0.80488900  1
  H  360  1  0.63177400  0.20608700  0.69776000  1
  H  371  1  0.27051900  0.14747900  0.95844200  1
  H  372  1  0.10714600  0.10508500  0.03449500  1
  H  373  1  0.13722000  0.05078500  0.01834300  1
  H  375  1  0.18606300  0.20061600  0.00157000  1
  H  377  1  0.11194300  0.18572700  0.00551200  1
  H  379  1  0.19772300  0.02228600  0.00532000  1
  H  390  1  0.73824300  0.86188900  0.95808900  1
  H  391  1  0.90144800  0.90311700  0.03481700  1
  H  392  1  0.87169200  0.95766900  0.01873400  1
  H  394  1  0.82215900  0.80814600  0.00136900  1
  H  396  1  0.89483400  0.82143200  0.00540700  1
  H  398  1  0.81135800  0.98650700  0.00550100  1
  H  409  1  0.14938300  0.74144400  0.05466500  1
  H  410  1  0.10615500  0.90282200  0.97617100  1
  H  411  1  0.05267400  0.87651800  0.99746400  1
  H  413  1  0.20113000  0.82046200  0.00423300  1
  H  415  1  0.18816200  0.89497200  0.00253200  1
  H  417  1  0.03310400  0.84246300  0.04386500  1
  H  428  1  0.86118100  0.27049000  0.05071800  1
  H  429  1  0.90374200  0.10729900  0.97448300  1
  H  430  1  0.95801300  0.13743800  0.99061700  1
  H  432  1  0.80812400  0.18600300  0.00755800  1
  H  434  1  0.82321400  0.11176800  0.00350400  1
  H  436  1  0.98633900  0.19816100  0.00352000  1
  H  447  1  0.77004700  0.36128900  0.45851900  1
  H  448  1  0.60704400  0.40405700  0.53496200  1
  H  449  1  0.63716000  0.45828400  0.51866500  1
  H  451  1  0.68567700  0.30833400  0.50190400  1
  H  453  1  0.61172100  0.32317300  0.50605900  1
  H  455  1  0.69768900  0.48665100  0.50543100  1
  H  466  1  0.23890300  0.64858000  0.45847900  1
  H  467  1  0.40191600  0.60529400  0.53468500  1
  H  468  1  0.37167100  0.55117500  0.51831400  1
  H  470  1  0.32345700  0.70124800  0.50186800  1
  H  472  1  0.39765800  0.68604800  0.50591800  1
  H  474  1  0.31099800  0.52298700  0.50518500  1
  H  485  1  0.64888900  0.77056500  0.55039900  1
  H  486  1  0.60459200  0.60753400  0.47459500  1
  H  487  1  0.55064900  0.63806600  0.49100900  1
  H  489  1  0.70100900  0.68560200  0.50711700  1
  H  491  1  0.68529400  0.61134600  0.50316500  1
  H  493  1  0.52299800  0.69928700  0.50381200  1
  H  504  1  0.36077400  0.23916600  0.55062500  1
  H  505  1  0.40361900  0.40213400  0.47417500  1
  H  506  1  0.45782900  0.37200100  0.49047000  1
  H  508  1  0.30786600  0.32356200  0.50723500  1
  H  510  1  0.32281500  0.39763000  0.50310700  1
  H  512  1  0.48619900  0.31149600  0.50371100  1
  C  1  1  0.06181300  0.30126600  0.10207300  1
  C  2  1  0.08174200  0.30169000  0.13001900  1
  C  3  1  0.08589300  0.33350300  0.14889900  1
  C  4  1  0.07061800  0.36695500  0.13784400  1
  C  5  1  0.05096000  0.36948100  0.11041000  1
  C  6  1  0.04755300  0.33657400  0.09292500  1
  C  9  1  0.05707800  0.26744000  0.08305600  1
  C  10  1  0.08698600  0.24357900  0.07434900  1
  C  11  1  0.08261600  0.21174400  0.05554800  1
  C  12  1  0.04613200  0.20270300  0.04648500  1
  C  13  1  0.01494700  0.22512100  0.05307500  1
  C  14  1  0.02159400  0.25665400  0.07162800  1
  C  27  1  0.94763400  0.70720700  0.10187200  1
  C  28  1  0.92759200  0.70661400  0.12981300  1
  C  29  1  0.92378800  0.67489800  0.14889800  1
  C  30  1  0.93940900  0.64160600  0.13787800  1
  C  31  1  0.95925900  0.63919800  0.11058000  1
  C  32  1  0.96279300  0.67207700  0.09310100  1
  C  35  1  0.95220700  0.74110500  0.08277100  1
  C  36  1  0.92251200  0.76578600  0.07502200  1
  C  37  1  0.92644300  0.79672900  0.05516700  1
  C  38  1  0.96243700  0.80427900  0.04407200  1
  C  39  1  0.99373800  0.78231100  0.05118000  1
  C  40  1  0.98722300  0.75087800  0.06984300  1
  C  53  1  0.30139200  0.94728700  0.90692600  1
  C  54  1  0.30187200  0.92739300  0.87897500  1
  C  55  1  0.33375600  0.92317300  0.86020900  1
  C  56  1  0.36717800  0.93844800  0.87130500  1
  C  57  1  0.36964100  0.95805800  0.89876600  1
  C  58  1  0.33667900  0.96151500  0.91617500  1
  C  61  1  0.26747100  0.95198900  0.92580200  1
  C  62  1  0.24347000  0.92206300  0.93419500  1
  C  63  1  0.21144800  0.92643200  0.95275500  1
  C  64  1  0.20245300  0.96282900  0.96204200  1
  C  65  1  0.22500800  0.99400200  0.95574700  1
  C  66  1  0.25667100  0.98742200  0.93732800  1
  C  79  1  0.70746000  0.06134600  0.90697300  1
  C  80  1  0.70670800  0.08167400  0.87918300  1
  C  81  1  0.67491700  0.08544000  0.86018400  1
  C  82  1  0.64171000  0.06966200  0.87123800  1
  C  83  1  0.63947600  0.04957500  0.89843900  1
  C  84  1  0.67249300  0.04585700  0.91573400  1
  C  87  1  0.74142200  0.05679300  0.92593200  1
  C  88  1  0.76514100  0.08682300  0.93467500  1
  C  89  1  0.79705400  0.08260500  0.95343300  1
  C  90  1  0.80625400  0.04618000  0.96254100  1
  C  91  1  0.78399100  0.01489300  0.95594600  1
  C  92  1  0.75249000  0.02136900  0.93732800  1
  C  105  1  0.56085200  0.20779300  0.60237400  1
  C  106  1  0.57954400  0.20708900  0.63090100  1
  C  107  1  0.58374500  0.17472600  0.64918500  1
  C  108  1  0.56866100  0.14154800  0.63760500  1
  C  109  1  0.54965400  0.13946500  0.60985800  1
  C  110  1  0.54699600  0.17258700  0.59255900  1
  C  113  1  0.55629500  0.24186000  0.58358500  1
  C  114  1  0.58631800  0.26567000  0.57503300  1
  C  115  1  0.58218600  0.29745300  0.55610600  1
  C  116  1  0.54577600  0.30654100  0.54685500  1
  C  117  1  0.51447200  0.28424000  0.55334400  1
  C  118  1  0.52092900  0.25270400  0.57194500  1
  C  131  1  0.44757400  0.80175600  0.60283700  1
  C  132  1  0.42798000  0.80203400  0.63097500  1
  C  133  1  0.42369400  0.83393800  0.64975500  1
  C  134  1  0.43951900  0.86719100  0.63899900  1
  C  135  1  0.45893400  0.86985200  0.61150900  1
  C  136  1  0.46240700  0.83698400  0.59395400  1
  C  139  1  0.45232600  0.76787400  0.58380600  1
  C  140  1  0.42238600  0.74405500  0.57502700  1
  C  141  1  0.42663600  0.71233300  0.55603900  1
  C  142  1  0.46311300  0.70335800  0.54688400  1
  C  143  1  0.49435500  0.72565700  0.55357700  1
  C  144  1  0.48778300  0.75702600  0.57233700  1
  C  157  1  0.80130100  0.56126500  0.40680200  1
  C  158  1  0.80203400  0.57993300  0.37826300  1
  C  159  1  0.83440100  0.58405400  0.35997100  1
  C  160  1  0.86755500  0.56892000  0.37155200  1
  C  161  1  0.86961300  0.54997900  0.39932800  1
  C  162  1  0.83648600  0.54735400  0.41662100  1
  C  165  1  0.76721800  0.55673600  0.42557500  1
  C  166  1  0.74340800  0.58675600  0.43414400  1
  C  167  1  0.71156700  0.58259100  0.45301100  1
  C  168  1  0.70250200  0.54617800  0.46226500  1
  C  169  1  0.72482800  0.51489700  0.45577100  1
  C  170  1  0.75636000  0.52135900  0.43717900  1
  C  183  1  0.20738100  0.44788800  0.40635200  1
  C  184  1  0.20710300  0.42827000  0.37821400  1
  C  185  1  0.17519500  0.42390400  0.35944100  1
  C  186  1  0.14192900  0.43969300  0.37021300  1
  C  187  1  0.13925400  0.45911800  0.39770000  1
  C  188  1  0.17213200  0.46266600  0.41523900  1
  C  191  1  0.24127200  0.45265100  0.42538700  1
  C  192  1  0.26506300  0.42266400  0.43410200  1
  C  193  1  0.29685800  0.42687900  0.45299600  1
  C  194  1  0.30592400  0.46330800  0.46219800  1
  C  195  1  0.28365600  0.49460300  0.45559900  1
  C  196  1  0.25218300  0.48807500  0.43691500  1
  C  209  1  0.01129600  0.46452900  0.10399600  1
  C  210  1  0.00521500  0.49028100  0.12785000  1
  C  211  1  0.99828300  0.52866700  0.12182100  1
  C  212  1  0.99591700  0.54344800  0.09246500  1
  C  213  1  0.00248100  0.51742800  0.06926100  1
  C  214  1  0.00990500  0.47951900  0.07473200  1
  C  216  1  0.99415400  0.54100500  0.17419000  1
  C  217  1  0.99945700  0.50361100  0.18028800  1
  C  224  1  0.01537000  0.42588400  0.10952100  1
  C  226  1  0.98817100  0.58145300  0.08592200  1
  C  228  1  0.46470800  0.99774000  0.90517100  1
  C  229  1  0.49043300  0.00384500  0.88130100  1
  C  230  1  0.52883800  0.01073100  0.88729900  1
  C  231  1  0.54368800  0.01297400  0.91663600  1
  C  232  1  0.51769000  0.00639600  0.93985700  1
  C  233  1  0.47975600  0.99904900  0.93441800  1
  C  235  1  0.54109000  0.01497800  0.83492400  1
  C  236  1  0.50369100  0.00966900  0.82885200  1
  C  243  1  0.42605500  0.99366100  0.89964900  1
  C  245  1  0.58173400  0.02062600  0.92314800  1
  C  247  1  0.50988600  0.04459200  0.60382300  1
  C  248  1  0.50926600  0.01810400  0.62763400  1
  C  249  1  0.50299900  0.97958500  0.62165900  1
  C  250  1  0.49484300  0.96561900  0.59272900  1
  C  251  1  0.49600500  0.99239900  0.56951900  1
  C  252  1  0.50344800  0.03035000  0.57475800  1
  C  254  1  0.51347800  0.96539600  0.67304100  1
  C  255  1  0.51659100  0.00289200  0.67963100  1
  C  262  1  0.51399300  0.08312400  0.60956300  1
  C  264  1  0.48703900  0.92758300  0.58649900  1
  C  266  1  0.96445100  0.51005700  0.40534600  1
  C  267  1  0.99094800  0.50934300  0.38154100  1
  C  268  1  0.02946100  0.50304600  0.38752800  1
  C  269  1  0.04341400  0.49491200  0.41646700  1
  C  270  1  0.01661900  0.49610700  0.43966800  1
  C  271  1  0.97867600  0.50358300  0.43441300  1
  C  273  1  0.04367700  0.51343900  0.33613900  1
  C  274  1  0.00618600  0.51657100  0.32954000  1
  C  281  1  0.92593300  0.51423800  0.39958500  1
  C  283  1  0.08145300  0.48711100  0.42271300  1
  C  285  1  0.12072300  0.35559500  0.22706500  1
  C  286  1  0.11048100  0.38675500  0.24515100  1
  C  287  1  0.13095300  0.39665800  0.27172700  1
  C  288  1  0.16174300  0.37663200  0.28266600  1
  C  289  1  0.17159500  0.34622900  0.26410800  1
  C  290  1  0.15209400  0.33610900  0.23757900  1
  C  292  1  0.09135500  0.44797600  0.27987300  1
  C  293  1  0.07046800  0.43820600  0.25491000  1
  C  300  1  0.09860500  0.34388000  0.20188300  1
  C  302  1  0.18241300  0.38605800  0.30941400  1
  C  304  1  0.88992500  0.65067700  0.22725000  1
  C  305  1  0.89960200  0.61913100  0.24520100  1
  C  306  1  0.87947400  0.60971800  0.27206700  1
  C  307  1  0.84914900  0.63039200  0.28312000  1
  C  308  1  0.83965400  0.66096200  0.26462200  1
  C  309  1  0.85909000  0.67076600  0.23801100  1
  C  311  1  0.91770000  0.55699200  0.27955400  1
  C  312  1  0.93783000  0.56595900  0.25391300  1
  C  319  1  0.91167600  0.66192600  0.20166300  1
  C  321  1  0.82813900  0.62124100  0.30970900  1
  C  323  1  0.35562800  0.88846500  0.78207300  1
  C  324  1  0.38676900  0.89869000  0.76397300  1
  C  325  1  0.39663600  0.87817900  0.73741700  1
  C  326  1  0.37657100  0.84739100  0.72652200  1
  C  327  1  0.34619100  0.83754900  0.74510800  1
  C  328  1  0.33611200  0.85708500  0.77162100  1
  C  330  1  0.44796200  0.91775800  0.72921900  1
  C  331  1  0.43822200  0.93867900  0.75416900  1
  C  338  1  0.34398100  0.91060700  0.80723300  1
  C  340  1  0.38595100  0.82668800  0.69980000  1
  C  342  1  0.65054200  0.11937600  0.78189600  1
  C  343  1  0.61901000  0.10963800  0.76395700  1
  C  344  1  0.60955000  0.12973800  0.73708600  1
  C  345  1  0.63017100  0.16008900  0.72601700  1
  C  346  1  0.66077200  0.16960400  0.74447700  1
  C  347  1  0.67061200  0.15019900  0.77109300  1
  C  349  1  0.55689300  0.09141700  0.72962000  1
  C  350  1  0.56590900  0.07130700  0.75526300  1
  C  357  1  0.66188200  0.09760900  0.80744900  1
  C  359  1  0.62100100  0.18104600  0.69940400  1
  C  361  1  0.14619100  0.14360700  0.01838000  1
  C  362  1  0.17975200  0.14473900  0.00143400  1
  C  363  1  0.19750400  0.11135700  0.99117400  1
  C  364  1  0.18273700  0.07566100  0.99651200  1
  C  365  1  0.14959200  0.07542700  0.01347200  1
  C  366  1  0.13182200  0.10789400  0.02362000  1
  C  368  1  0.24615300  0.14689400  0.96984900  1
  C  369  1  0.22919600  0.17948200  0.97958300  1
  C  376  1  0.12291300  0.17468700  0.02381200  1
  C  378  1  0.19947100  0.04100200  0.98913900  1
  C  380  1  0.86234100  0.86488300  0.01836900  1
  C  381  1  0.82881700  0.86399300  0.00136600  1
  C  382  1  0.81128700  0.89750300  0.99114700  1
  C  383  1  0.82617500  0.93310100  0.99667700  1
  C  384  1  0.85925000  0.93310100  0.01373500  1
  C  385  1  0.87682400  0.90049500  0.02383900  1
  C  387  1  0.76255800  0.86230500  0.96957400  1
  C  388  1  0.77928900  0.82959400  0.97928100  1
  C  395  1  0.88518400  0.83345300  0.02378200  1
  C  397  1  0.80959800  0.96783400  0.98928900  1
  C  399  1  0.14438300  0.86243100  0.99044700  1
  C  400  1  0.14572400  0.82906800  0.00762200  1
  C  401  1  0.11281600  0.81334200  0.02065000  1
  C  402  1  0.07748800  0.82985800  0.01766200  1
  C  403  1  0.07688800  0.86232900  0.99987300  1
  C  404  1  0.10886000  0.87797300  0.98680200  1
  C  406  1  0.14854000  0.76486900  0.04203600  1
  C  407  1  0.18062100  0.77960600  0.02928100  1
  C  414  1  0.17573200  0.88512400  0.98439800  1
  C  416  1  0.04515500  0.82072900  0.03452200  1
  C  418  1  0.86516400  0.14626100  0.99064200  1
  C  419  1  0.86401000  0.17978500  0.00764100  1
  C  420  1  0.89737900  0.19758000  0.01788800  1
  C  421  1  0.93309500  0.18288200  0.01251200  1
  C  422  1  0.93335400  0.14976000  0.99552500  1
  C  423  1  0.90090200  0.13195500  0.98538200  1
  C  425  1  0.86179200  0.24614000  0.03928700  1
  C  426  1  0.82921900  0.22913800  0.02957300  1
  C  433  1  0.83413300  0.12289600  0.98522300  1
  C  435  1  0.96774600  0.19969300  0.01981100  1
  C  437  1  0.64589500  0.36543700  0.51872100  1
  C  438  1  0.67942400  0.36421400  0.50171900  1
  C  439  1  0.69719400  0.39755900  0.49137600  1
  C  440  1  0.68254700  0.43329700  0.49674500  1
  C  441  1  0.64945400  0.43360800  0.51377400  1
  C  442  1  0.63167000  0.40118900  0.52402500  1
  C  444  1  0.74572100  0.36192500  0.46998000  1
  C  445  1  0.72875600  0.32937700  0.47979200  1
  C  452  1  0.62266500  0.33432900  0.52432200  1
  C  454  1  0.69931500  0.46791700  0.48925200  1
  C  456  1  0.36310900  0.64404600  0.51856900  1
  C  457  1  0.32957200  0.64535500  0.50158900  1
  C  458  1  0.31172500  0.61206800  0.49119700  1
  C  459  1  0.32632400  0.57627200  0.49642500  1
  C  460  1  0.35941600  0.57588100  0.51347000  1
  C  461  1  0.37729000  0.60824500  0.52376600  1
  C  463  1  0.26324400  0.64786400  0.46991700  1
  C  464  1  0.28029500  0.68035200  0.47976600  1
  C  471  1  0.38650400  0.67506600  0.52416400  1
  C  473  1  0.30942800  0.54166600  0.48896800  1
  C  475  1  0.64355600  0.64619800  0.49058900  1
  C  476  1  0.64508500  0.67977100  0.50750400  1
  C  477  1  0.61191100  0.69780500  0.51791600  1
  C  478  1  0.57604100  0.68333000  0.51278100  1
  C  479  1  0.57543200  0.65019700  0.49580600  1
  C  480  1  0.60768000  0.63216800  0.48547900  1
  C  482  1  0.64801600  0.74619000  0.53901700  1
  C  483  1  0.68039300  0.72893500  0.52916200  1
  C  490  1  0.67447400  0.62272800  0.48494500  1
  C  492  1  0.54154700  0.70044400  0.52015900  1
  C  494  1  0.36497700  0.36330500  0.49041700  1
  C  495  1  0.36375100  0.32977900  0.50741900  1
  C  496  1  0.39708800  0.31199500  0.51776600  1
  C  497  1  0.43284000  0.32663000  0.51241000  1
  C  498  1  0.43315400  0.35971000  0.49536100  1
  C  499  1  0.40074000  0.37750800  0.48511000  1
  C  501  1  0.36142400  0.26349600  0.53916900  1
  C  502  1  0.32888600  0.28047400  0.52935200  1
  C  509  1  0.33388900  0.38658400  0.48485700  1
  C  511  1  0.46748100  0.30987100  0.51989900  1
  N  23  1  0.97994300  0.21356100  0.04494000  1
  N  24  1  0.11011600  0.18659300  0.04935500  1
  N  25  1  0.04185100  0.40427700  0.10073900  1
  N  26  1  0.10783500  0.33631500  0.17426500  1
  N  49  1  0.02746800  0.78962400  0.03791600  1
  N  50  1  0.89912600  0.82217600  0.04912400  1
  N  51  1  0.97255500  0.60490100  0.10386600  1
  N  52  1  0.90224600  0.67208300  0.17458700  1
  N  75  1  0.21349800  0.02896700  0.96401900  1
  N  76  1  0.18619900  0.89903700  0.95884900  1
  N  77  1  0.40443100  0.96719700  0.90845600  1
  N  78  1  0.33653600  0.90128500  0.83483900  1
  N  101  1  0.79555500  0.97993200  0.96419100  1
  N  102  1  0.82209800  0.11021900  0.95967200  1
  N  103  1  0.60520100  0.03625500  0.90522400  1
  N  104  1  0.67197800  0.10703600  0.83453900  1
  N  127  1  0.47952500  0.29584500  0.54502800  1
  N  128  1  0.60976500  0.32255600  0.54988700  1
  N  129  1  0.53989200  0.10493600  0.59994700  1
  N  130  1  0.60086000  0.17100400  0.67662500  1
  N  153  1  0.52932500  0.71396100  0.54541200  1
  N  154  1  0.39909600  0.68718100  0.54973500  1
  N  155  1  0.47205700  0.90432100  0.60495200  1
  N  156  1  0.40620500  0.83694900  0.67712400  1
  N  179  1  0.71325600  0.47995200  0.46409400  1
  N  180  1  0.68657500  0.61025500  0.45933800  1
  N  181  1  0.90413100  0.54013400  0.40923000  1
  N  182  1  0.83814700  0.60113500  0.33251900  1
  N  205  1  0.29534900  0.52956800  0.46386400  1
  N  206  1  0.32196100  0.39930500  0.45927700  1
  N  207  1  0.10476500  0.47219700  0.40426400  1
  N  208  1  0.17217800  0.40636500  0.33207800  1
  N  215  1  0.99363900  0.55176700  0.14539200  1
  N  218  1  0.00548700  0.47980800  0.15738800  1
  N  234  1  0.55190500  0.01541200  0.86370900  1
  N  237  1  0.47992100  0.00361900  0.85177200  1
  N  253  1  0.50623600  0.95536900  0.64464500  1
  N  256  1  0.51494900  0.02782200  0.65700500  1
  N  272  1  0.05368500  0.50621700  0.36454400  1
  N  275  1  0.98124900  0.51499600  0.35216200  1
  N  291  1  0.12041700  0.42691700  0.28725100  1
  N  294  1  0.08081700  0.40875300  0.23818100  1
  N  310  1  0.88956700  0.57911500  0.28745600  1
  N  313  1  0.92811500  0.59599800  0.23759500  1
  N  329  1  0.42689200  0.88869100  0.72187300  1
  N  332  1  0.40877500  0.92835700  0.77091400  1
  N  348  1  0.57895800  0.11958600  0.72170600  1
  N  351  1  0.59594000  0.08107700  0.77156700  1
  N  367  1  0.22976700  0.11430200  0.97596700  1
  N  370  1  0.19676900  0.17748100  0.99478800  1
  N  386  1  0.77908000  0.89478400  0.97583300  1
  N  389  1  0.81165000  0.83136800  0.99458800  1
  N  405  1  0.11611100  0.78227800  0.03738300  1
  N  408  1  0.17834300  0.81109400  0.01285200  1
  N  424  1  0.89440100  0.22981700  0.03312700  1
  N  427  1  0.83124900  0.19672700  0.01434700  1
  N  443  1  0.72940000  0.39454500  0.47610000  1
  N  446  1  0.69637500  0.33144200  0.49505900  1
  N  462  1  0.27950400  0.61518900  0.47595700  1
  N  465  1  0.31268400  0.67818100  0.49500800  1
  N  481  1  0.61523900  0.73007000  0.53307300  1
  N  484  1  0.67801300  0.69650500  0.51400200  1
  N  500  1  0.39405700  0.27979600  0.53304600  1
  N  503  1  0.33096900  0.31285200  0.51408300  1
  O  8  1  0.07579800  0.39853400  0.15396200  1
  O  15  1  0.04088300  0.17005500  0.03193800  1
  O  17  1  0.03039200  0.33992400  0.06600300  1
  O  18  1  0.12163400  0.25127300  0.08407400  1
  O  34  1  0.93465200  0.61009300  0.15416300  1
  O  41  1  0.96686700  0.83300700  0.02467500  1
  O  43  1  0.98085500  0.66871600  0.06658600  1
  O  44  1  0.88820600  0.75920300  0.08600200  1
  O  60  1  0.39878200  0.93325200  0.85522400  1
  O  67  1  0.16977100  0.96795800  0.97657600  1
  O  69  1  0.33994600  0.97865100  0.94311300  1
  O  70  1  0.25114200  0.88744600  0.92439100  1
  O  86  1  0.61011500  0.07449900  0.85507400  1
  O  93  1  0.83892600  0.04107500  0.97708800  1
  O  95  1  0.66959500  0.02717200  0.94200100  1
  O  96  1  0.75724400  0.12145300  0.92502200  1
  O  112  1  0.57282000  0.10985200  0.65376200  1
  O  119  1  0.54070400  0.33915000  0.53220700  1
  O  121  1  0.53060100  0.16965300  0.56529200  1
  O  122  1  0.62081100  0.25793700  0.58509200  1
  O  138  1  0.43631600  0.89828300  0.65607000  1
  O  145  1  0.46832400  0.67088200  0.53208200  1
  O  147  1  0.48065400  0.84012700  0.56751100  1
  O  148  1  0.38779600  0.75169900  0.58490900  1
  O  164  1  0.89925200  0.57299700  0.35538400  1
  O  171  1  0.66987600  0.54106000  0.47687400  1
  O  173  1  0.83939700  0.53096400  0.44389200  1
  O  174  1  0.75118100  0.62125700  0.42413300  1
  O  190  1  0.11083600  0.43643700  0.35315200  1
  O  197  1  0.33853000  0.46840700  0.47684300  1
  O  199  1  0.16898200  0.48091600  0.44168000  1
  O  200  1  0.25735400  0.38808300  0.42423100  1
  O  222  1  0.99736600  0.49137200  0.20869000  1
  O  241  1  0.49140800  0.01174600  0.80046100  1
  O  260  1  0.52161800  0.01343900  0.70828600  1
  O  279  1  0.99565000  0.52154900  0.30087600  1
  O  298  1  0.04004900  0.45792000  0.24835600  1
  O  317  1  0.96653100  0.54463000  0.24566600  1
  O  336  1  0.45795600  0.96909500  0.76070100  1
  O  355  1  0.54464400  0.04255900  0.76350500  1
  O  374  1  0.24544000  0.21234500  0.97408000  1
  O  393  1  0.76291600  0.79682800  0.97366400  1
  O  412  1  0.21331900  0.76247800  0.03351100  1
  O  431  1  0.79633700  0.24532200  0.03511800  1
  O  450  1  0.74495000  0.29648700  0.47429800  1
  O  469  1  0.26416800  0.71328900  0.47433400  1
  O  488  1  0.71343500  0.74489200  0.53450600  1
  O  507  1  0.29598500  0.26430000  0.53484400  1
