# generated using pymatgen
data_HC2N
_symmetry_space_group_name_H-M   'P 1'
_cell_length_a   11.05340000
_cell_length_b   28.31800000
_cell_length_c   28.31800000
_cell_angle_alpha   90.00000000
_cell_angle_beta   90.00000000
_cell_angle_gamma   90.00000000
_symmetry_Int_Tables_number   1
_chemical_formula_structural   HC2N
_chemical_formula_sum   'H36 C72 N36'
_cell_volume   8863.82231122
_cell_formula_units_Z   36
loop_
 _symmetry_equiv_pos_site_id
 _symmetry_equiv_pos_as_xyz
  1  'x, y, z'
loop_
 _atom_site_type_symbol
 _atom_site_label
 _atom_site_symmetry_multiplicity
 _atom_site_fract_x
 _atom_site_fract_y
 _atom_site_fract_z
 _atom_site_occupancy
  C  1  1  0.88108400  0.31358300  0.27271100  1
  C  3  1  0.09216100  0.32380100  0.26308600  1
  C  5  1  0.95542400  0.37700400  0.22667300  1
  C  7  1  0.93267800  0.41927400  0.20271300  1
  C  8  1  0.78705900  0.28614300  0.29125000  1
  C  9  1  0.21108200  0.31096600  0.27468200  1
  C  13  1  0.88131100  0.72026700  0.76972300  1
  C  15  1  0.09239500  0.71017800  0.77944800  1
  C  17  1  0.95576800  0.65684400  0.81573300  1
  C  19  1  0.93320200  0.61453900  0.83965700  1
  C  20  1  0.78727500  0.74770200  0.75117600  1
  C  21  1  0.21130000  0.72309500  0.76791800  1
  C  25  1  0.38149100  0.76562300  0.31825300  1
  C  27  1  0.59257200  0.77528500  0.32841700  1
  C  29  1  0.45588500  0.81163600  0.38168300  1
  C  31  1  0.43324500  0.83558900  0.42396700  1
  C  32  1  0.28745900  0.74709100  0.29080400  1
  C  33  1  0.71148900  0.76371600  0.31554900  1
  C  37  1  0.38090100  0.26861200  0.72493500  1
  C  39  1  0.59197900  0.25892000  0.71479700  1
  C  41  1  0.45529500  0.22257500  0.66152300  1
  C  43  1  0.43262400  0.19864100  0.61923500  1
  C  44  1  0.28686100  0.28716500  0.75235900  1
  C  45  1  0.71088500  0.27048100  0.72767900  1
  C  49  1  0.07083600  0.73462200  0.27394800  1
  C  51  1  0.86089000  0.71937700  0.26733400  1
  C  53  1  0.99963700  0.67961800  0.21742300  1
  C  55  1  0.02946500  0.64691000  0.18226600  1
  C  56  1  0.16452800  0.75603200  0.29943200  1
  C  57  1  0.74168900  0.73015400  0.28060200  1
  C  61  1  0.07024100  0.29961600  0.76922900  1
  C  63  1  0.86027500  0.31475900  0.77595900  1
  C  65  1  0.99902100  0.35434700  0.82599800  1
  C  67  1  0.02882200  0.38673000  0.86143800  1
  C  68  1  0.16393000  0.27828700  0.74367600  1
  C  69  1  0.74108100  0.30397600  0.76269200  1
  C  73  1  0.57042900  0.26933500  0.30375400  1
  C  75  1  0.36049700  0.26278600  0.31905900  1
  C  77  1  0.49924700  0.21290200  0.35885000  1
  C  79  1  0.52912500  0.17779300  0.39159900  1
  C  80  1  0.66413000  0.29477300  0.28229900  1
  C  81  1  0.24130000  0.27605500  0.30828100  1
  C  85  1  0.57066300  0.76461700  0.73876000  1
  C  87  1  0.36067400  0.77141100  0.72367400  1
  C  89  1  0.49942400  0.82147800  0.68412000  1
  C  91  1  0.52917500  0.85696100  0.65178000  1
  C  92  1  0.66433600  0.73901800  0.76004700  1
  C  93  1  0.24148000  0.75814400  0.73445900  1
  C  97  1  0.01576600  0.47975200  0.15005100  1
  C  98  1  0.07393900  0.48389700  0.10593600  1
  C  99  1  0.08775000  0.52849500  0.08419000  1
  C  100  1  0.06203400  0.56938700  0.11075900  1
  C  101  1  0.00229700  0.56605400  0.15486700  1
  C  102  1  0.97134700  0.52096900  0.17239200  1
  C  109  1  0.01633600  0.55429800  0.89259200  1
  C  110  1  0.07443600  0.55033600  0.93674800  1
  C  111  1  0.08760900  0.50581300  0.95870900  1
  C  112  1  0.06228700  0.46478900  0.93228400  1
  C  113  1  0.00285300  0.46794600  0.88810700  1
  C  114  1  0.97242500  0.51296400  0.87030200  1
  C  121  1  0.51633600  0.88840700  0.48431800  1
  C  122  1  0.57422900  0.93259100  0.48834000  1
  C  123  1  0.58789000  0.95446800  0.53287700  1
  C  124  1  0.56217300  0.92801800  0.57384400  1
  C  125  1  0.50280300  0.88382700  0.57064100  1
  C  126  1  0.47211500  0.86611700  0.52559900  1
  C  133  1  0.51576700  0.14586400  0.55886400  1
  C  134  1  0.57414300  0.10177700  0.55477800  1
  C  135  1  0.58747400  0.07995000  0.51019500  1
  C  136  1  0.56215900  0.10649400  0.46924600  1
  C  137  1  0.50235200  0.15058600  0.47253400  1
  C  138  1  0.47165500  0.16820700  0.51759300  1
  H  10  1  0.27921900  0.32964800  0.25887400  1
  H  11  1  0.81026100  0.25793500  0.31200600  1
  H  12  1  0.85042300  0.43534900  0.20686300  1
  H  22  1  0.27945500  0.70437600  0.78366800  1
  H  23  1  0.81048100  0.77598400  0.73052500  1
  H  24  1  0.85097500  0.59842900  0.83558900  1
  H  34  1  0.77963200  0.77951200  0.33423700  1
  H  35  1  0.31067100  0.72636500  0.26257400  1
  H  36  1  0.35103900  0.83143600  0.44007400  1
  H  46  1  0.77903600  0.25471600  0.70896600  1
  H  47  1  0.31006500  0.30784800  0.78062100  1
  H  48  1  0.35035300  0.20270900  0.60315700  1
  H  58  1  0.67361800  0.71293600  0.26317400  1
  H  59  1  0.14125400  0.77736100  0.32719400  1
  H  60  1  0.11356700  0.64944200  0.16731500  1
  H  70  1  0.67299900  0.32111600  0.78019300  1
  H  71  1  0.14065300  0.25702400  0.71586300  1
  H  72  1  0.11290600  0.38447300  0.87639700  1
  H  82  1  0.17323100  0.25864800  0.32552500  1
  H  83  1  0.64086900  0.32251600  0.26094300  1
  H  84  1  0.61319500  0.16281700  0.38904600  1
  H  94  1  0.17339300  0.77566600  0.71734300  1
  H  95  1  0.64104900  0.71118400  0.78128100  1
  H  96  1  0.61329400  0.87189500  0.65401600  1
  H  103  1  0.07268300  0.60186500  0.09544600  1
  H  104  1  0.93319500  0.51842700  0.20521300  1
  H  105  1  0.09562500  0.45390900  0.08760700  1
  H  115  1  0.07240100  0.43242500  0.94788200  1
  H  116  1  0.93405500  0.51545300  0.83751400  1
  H  117  1  0.09536200  0.58039400  0.95508900  1
  H  127  1  0.57264000  0.94345700  0.60627200  1
  H  128  1  0.43413800  0.83326200  0.52314800  1
  H  129  1  0.59578600  0.95086900  0.45830600  1
  H  139  1  0.57246000  0.09102200  0.43683200  1
  H  140  1  0.43310600  0.20095800  0.52017500  1
  H  141  1  0.59519800  0.08338300  0.58479100  1
  N  2  1  0.99646000  0.30014100  0.28146600  1
  N  4  1  0.07032200  0.36175600  0.23480900  1
  N  6  1  0.86195000  0.35303300  0.24644100  1
  N  14  1  0.99665500  0.73380200  0.76105300  1
  N  16  1  0.07062700  0.67217400  0.80766300  1
  N  18  1  0.86225000  0.68077200  0.79593900  1
  N  26  1  0.49684900  0.75690100  0.30477300  1
  N  28  1  0.57076800  0.80353200  0.36639300  1
  N  30  1  0.36239200  0.79186400  0.35772700  1
  N  38  1  0.49625700  0.27731200  0.73843200  1
  N  40  1  0.57017500  0.23067600  0.67681400  1
  N  42  1  0.36180400  0.24236500  0.68546500  1
  N  50  1  0.95530700  0.74221400  0.28773400  1
  N  52  1  0.88452600  0.68697000  0.23292300  1
  N  54  1  0.09122700  0.70401600  0.23794400  1
  N  62  1  0.95471000  0.29204500  0.75543200  1
  N  64  1  0.88388400  0.34700600  0.81052400  1
  N  66  1  0.09063100  0.33006800  0.80536100  1
  N  74  1  0.45490400  0.28313600  0.29616900  1
  N  76  1  0.38414200  0.22841500  0.35150800  1
  N  78  1  0.59082100  0.23337100  0.33440100  1
  N  86  1  0.45512400  0.75083400  0.74633800  1
  N  88  1  0.38427700  0.80601100  0.69146900  1
  N  90  1  0.59104700  0.80078800  0.70835200  1
  N  106  1  0.00981900  0.43628500  0.16990900  1
  N  107  1  0.10041000  0.53413800  0.03699400  1
  N  108  1  0.97682000  0.60385700  0.18262500  1
  N  118  1  0.01024000  0.59770100  0.87259400  1
  N  119  1  0.10023900  0.50039600  0.00593000  1
  N  120  1  0.97717400  0.42999200  0.86057300  1
  N  130  1  0.51032900  0.86846200  0.44088900  1
  N  131  1  0.60037300  0.00168100  0.53841100  1
  N  132  1  0.47730700  0.85621600  0.60855700  1
  N  142  1  0.50972800  0.16577600  0.60230600  1
  N  143  1  0.60028400  0.03274500  0.50466900  1
  N  144  1  0.47669300  0.17826700  0.43469200  1
