# generated using pymatgen
data_CoH7C13NO4
_symmetry_space_group_name_H-M   'P 1'
_cell_length_a   11.07780000
_cell_length_b   11.07780000
_cell_length_c   27.87930000
_cell_angle_alpha   90.00000000
_cell_angle_beta   90.00000000
_cell_angle_gamma   120.00000000
_symmetry_Int_Tables_number   1
_chemical_formula_structural   CoH7C13NO4
_chemical_formula_sum   'Co6 H42 C78 N6 O24'
_cell_volume   2962.91734966
_cell_formula_units_Z   6
loop_
 _symmetry_equiv_pos_site_id
 _symmetry_equiv_pos_as_xyz
  1  'x, y, z'
loop_
 _atom_site_type_symbol
 _atom_site_label
 _atom_site_symmetry_multiplicity
 _atom_site_fract_x
 _atom_site_fract_y
 _atom_site_fract_z
 _atom_site_occupancy
  Co  Co1  1  0.07985000  0.25060000  0.97080000  1.0
  Co  Co2  1  0.74940000  0.82925000  0.63747000  1.0
  Co  Co3  1  0.17075000  0.92015000  0.30414000  1.0
  Co  Co4  1  0.25060000  0.07985000  0.02920000  1.0
  Co  Co5  1  0.82925000  0.74940000  0.36253000  1.0
  Co  Co6  1  0.92015000  0.17075000  0.69586000  1.0
  H  H1  1  0.06430000  0.50570000  0.99970000  1.0
  H  H2  1  0.34260000  0.84500000  0.92770000  1.0
  H  H3  1  0.25490000  0.46270000  0.88940000  1.0
  H  H4  1  0.31100000  0.55640000  0.81540000  1.0
  H  H5  1  0.45530000  0.65240000  0.74970000  1.0
  H  H6  1  0.69890000  0.99600000  0.82550000  1.0
  H  H7  1  0.55530000  0.90260000  0.89110000  1.0
  H  H8  1  0.49430000  0.55860000  0.66637000  1.0
  H  H9  1  0.15500000  0.49760000  0.59437000  1.0
  H  H10  1  0.53730000  0.79220000  0.55607000  1.0
  H  H11  1  0.44360000  0.75460000  0.48207000  1.0
  H  H12  1  0.34760000  0.80290000  0.41637000  1.0
  H  H13  1  0.00400000  0.70290000  0.49217000  1.0
  H  H14  1  0.09740000  0.65270000  0.55777000  1.0
  H  H15  1  0.44140000  0.93570000  0.33303000  1.0
  H  H16  1  0.50240000  0.65740000  0.26103000  1.0
  H  H17  1  0.20780000  0.74510000  0.22273000  1.0
  H  H18  1  0.24540000  0.68900000  0.14873000  1.0
  H  H19  1  0.19710000  0.54470000  0.08303000  1.0
  H  H20  1  0.29710000  0.30110000  0.15883000  1.0
  H  H21  1  0.34730000  0.44470000  0.22443000  1.0
  H  H22  1  0.50570000  0.06430000  0.00030000  1.0
  H  H23  1  0.84500000  0.34260000  0.07230000  1.0
  H  H24  1  0.46270000  0.25490000  0.11060000  1.0
  H  H25  1  0.55640000  0.31100000  0.18460000  1.0
  H  H26  1  0.65240000  0.45530000  0.25030000  1.0
  H  H27  1  0.99600000  0.69890000  0.17450000  1.0
  H  H28  1  0.90260000  0.55530000  0.10890000  1.0
  H  H29  1  0.55860000  0.49430000  0.33363000  1.0
  H  H30  1  0.49760000  0.15500000  0.40563000  1.0
  H  H31  1  0.79220000  0.53730000  0.44393000  1.0
  H  H32  1  0.75460000  0.44360000  0.51793000  1.0
  H  H33  1  0.80290000  0.34760000  0.58363000  1.0
  H  H34  1  0.70290000  0.00400000  0.50783000  1.0
  H  H35  1  0.65270000  0.09740000  0.44223000  1.0
  H  H36  1  0.93570000  0.44140000  0.66697000  1.0
  H  H37  1  0.65740000  0.50240000  0.73897000  1.0
  H  H38  1  0.74510000  0.20780000  0.77727000  1.0
  H  H39  1  0.68900000  0.24540000  0.85127000  1.0
  H  H40  1  0.54470000  0.19710000  0.91697000  1.0
  H  H41  1  0.30110000  0.29710000  0.84117000  1.0
  H  H42  1  0.44470000  0.34730000  0.77557000  1.0
  C  C1  1  0.12910000  0.54570000  0.97504000  1.0
  C  C2  1  0.19910000  0.69000000  0.96977000  1.0
  C  C3  1  0.29430000  0.74890000  0.93206000  1.0
  C  C4  1  0.31630000  0.66420000  0.90141000  1.0
  C  C5  1  0.24140000  0.52080000  0.91001000  1.0
  C  C6  1  0.41350000  0.72100000  0.85996000  1.0
  C  C7  1  0.38750000  0.64600000  0.81746000  1.0
  C  C8  1  0.47460000  0.70350000  0.77797000  1.0
  C  C9  1  0.58900000  0.83530000  0.78031000  1.0
  C  C10  1  0.61960000  0.90840000  0.82321000  1.0
  C  C11  1  0.53340000  0.85240000  0.86256000  1.0
  C  C12  1  0.17320000  0.77810000  0.00499000  1.0
  C  C13  1  0.67920000  0.90350000  0.73637000  1.0
  C  C14  1  0.45430000  0.58340000  0.64171000  1.0
  C  C15  1  0.31000000  0.50910000  0.63644000  1.0
  C  C16  1  0.25110000  0.54540000  0.59873000  1.0
  C  C17  1  0.33580000  0.65210000  0.56808000  1.0
  C  C18  1  0.47920000  0.72060000  0.57668000  1.0
  C  C19  1  0.27900000  0.69250000  0.52663000  1.0
  C  C20  1  0.35400000  0.74150000  0.48413000  1.0
  C  C21  1  0.29650000  0.77110000  0.44464000  1.0
  C  C22  1  0.16470000  0.75370000  0.44698000  1.0
  C  C23  1  0.09160000  0.71120000  0.48988000  1.0
  C  C24  1  0.14760000  0.68100000  0.52923000  1.0
  C  C25  1  0.22190000  0.39510000  0.67166000  1.0
  C  C26  1  0.09650000  0.77570000  0.40304000  1.0
  C  C27  1  0.41660000  0.87090000  0.30837000  1.0
  C  C28  1  0.49090000  0.80090000  0.30310000  1.0
  C  C29  1  0.45460000  0.70570000  0.26539000  1.0
  C  C30  1  0.34790000  0.68370000  0.23474000  1.0
  C  C31  1  0.27940000  0.75860000  0.24334000  1.0
  C  C32  1  0.30750000  0.58650000  0.19329000  1.0
  C  C33  1  0.25850000  0.61250000  0.15079000  1.0
  C  C34  1  0.22890000  0.52540000  0.11130000  1.0
  C  C35  1  0.24630000  0.41100000  0.11364000  1.0
  C  C36  1  0.28880000  0.38040000  0.15654000  1.0
  C  C37  1  0.31900000  0.46660000  0.19589000  1.0
  C  C38  1  0.60490000  0.82680000  0.33832000  1.0
  C  C39  1  0.22430000  0.32080000  0.06970000  1.0
  C  C40  1  0.54570000  0.12910000  0.02496000  1.0
  C  C41  1  0.69000000  0.19910000  0.03023000  1.0
  C  C42  1  0.74890000  0.29430000  0.06794000  1.0
  C  C43  1  0.66420000  0.31630000  0.09859000  1.0
  C  C44  1  0.52080000  0.24140000  0.08999000  1.0
  C  C45  1  0.72100000  0.41350000  0.14004000  1.0
  C  C46  1  0.64600000  0.38750000  0.18254000  1.0
  C  C47  1  0.70350000  0.47460000  0.22203000  1.0
  C  C48  1  0.83530000  0.58900000  0.21969000  1.0
  C  C49  1  0.90840000  0.61960000  0.17679000  1.0
  C  C50  1  0.85240000  0.53340000  0.13744000  1.0
  C  C51  1  0.77810000  0.17320000  0.99501000  1.0
  C  C52  1  0.90350000  0.67920000  0.26363000  1.0
  C  C53  1  0.58340000  0.45430000  0.35829000  1.0
  C  C54  1  0.50910000  0.31000000  0.36356000  1.0
  C  C55  1  0.54540000  0.25110000  0.40127000  1.0
  C  C56  1  0.65210000  0.33580000  0.43192000  1.0
  C  C57  1  0.72060000  0.47920000  0.42332000  1.0
  C  C58  1  0.69250000  0.27900000  0.47337000  1.0
  C  C59  1  0.74150000  0.35400000  0.51587000  1.0
  C  C60  1  0.77110000  0.29650000  0.55536000  1.0
  C  C61  1  0.75370000  0.16470000  0.55302000  1.0
  C  C62  1  0.71120000  0.09160000  0.51012000  1.0
  C  C63  1  0.68100000  0.14760000  0.47077000  1.0
  C  C64  1  0.39510000  0.22190000  0.32834000  1.0
  C  C65  1  0.77570000  0.09650000  0.59696000  1.0
  C  C66  1  0.87090000  0.41660000  0.69163000  1.0
  C  C67  1  0.80090000  0.49090000  0.69690000  1.0
  C  C68  1  0.70570000  0.45460000  0.73461000  1.0
  C  C69  1  0.68370000  0.34790000  0.76526000  1.0
  C  C70  1  0.75860000  0.27940000  0.75666000  1.0
  C  C71  1  0.58650000  0.30750000  0.80671000  1.0
  C  C72  1  0.61250000  0.25850000  0.84921000  1.0
  C  C73  1  0.52540000  0.22890000  0.88870000  1.0
  C  C74  1  0.41100000  0.24630000  0.88636000  1.0
  C  C75  1  0.38040000  0.28880000  0.84346000  1.0
  C  C76  1  0.46660000  0.31900000  0.80411000  1.0
  C  C77  1  0.82680000  0.60490000  0.66168000  1.0
  C  C78  1  0.32080000  0.22430000  0.93030000  1.0
  N  N1  1  0.15100000  0.46230000  0.94630000  1.0
  N  N2  1  0.53770000  0.68870000  0.61297000  1.0
  N  N3  1  0.31130000  0.84900000  0.27963000  1.0
  N  N4  1  0.46230000  0.15100000  0.05370000  1.0
  N  N5  1  0.68870000  0.53770000  0.38703000  1.0
  N  N6  1  0.84900000  0.31130000  0.72037000  1.0
  O  O1  1  0.09640000  0.71900000  0.03978000  1.0
  O  O2  1  0.23160000  0.90700000  0.99470000  1.0
  O  O3  1  0.64650000  0.83200000  0.69879000  1.0
  O  O4  1  0.77600000  0.02490000  0.74116000  1.0
  O  O5  1  0.28100000  0.37740000  0.70645000  1.0
  O  O6  1  0.09300000  0.32460000  0.66137000  1.0
  O  O7  1  0.16800000  0.81450000  0.36546000  1.0
  O  O8  1  0.97510000  0.75110000  0.40783000  1.0
  O  O9  1  0.62260000  0.90360000  0.37311000  1.0
  O  O10  1  0.67540000  0.76840000  0.32803000  1.0
  O  O11  1  0.18550000  0.35350000  0.03212000  1.0
  O  O12  1  0.24890000  0.22400000  0.07449000  1.0
  O  O13  1  0.71900000  0.09640000  0.96022000  1.0
  O  O14  1  0.90700000  0.23160000  0.00530000  1.0
  O  O15  1  0.83200000  0.64650000  0.30121000  1.0
  O  O16  1  0.02490000  0.77600000  0.25884000  1.0
  O  O17  1  0.37740000  0.28100000  0.29355000  1.0
  O  O18  1  0.32460000  0.09300000  0.33863000  1.0
  O  O19  1  0.81450000  0.16800000  0.63454000  1.0
  O  O20  1  0.75110000  0.97510000  0.59217000  1.0
  O  O21  1  0.90360000  0.62260000  0.62689000  1.0
  O  O22  1  0.76840000  0.67540000  0.67197000  1.0
  O  O23  1  0.35350000  0.18550000  0.96788000  1.0
  O  O24  1  0.22400000  0.24890000  0.92551000  1.0
