# generated using pymatgen
data_H11(C7N)3
_symmetry_space_group_name_H-M   'P 1'
_cell_length_a   9.94086667
_cell_length_b   29.93855000
_cell_length_c   29.93850000
_cell_angle_alpha   119.99983426
_cell_angle_beta   90.00000000
_cell_angle_gamma   90.00000000
_symmetry_Int_Tables_number   1
_chemical_formula_structural   H11(C7N)3
_chemical_formula_sum   'H33 C63 N9'
_cell_volume   7716.42972888
_cell_formula_units_Z   3
loop_
 _symmetry_equiv_pos_site_id
 _symmetry_equiv_pos_as_xyz
  1  'x, y, z'
loop_
 _atom_site_type_symbol
 _atom_site_label
 _atom_site_symmetry_multiplicity
 _atom_site_fract_x
 _atom_site_fract_y
 _atom_site_fract_z
 _atom_site_occupancy
  C  1  1  0.11144200  0.97061200  0.48604900  1
  C  2  1  0.99127300  0.94175500  0.47162100  1
  C  13  1  0.99003300  0.71855000  0.36002000  1
  C  14  1  0.99009700  0.68879300  0.30525800  1
  C  15  1  0.99003600  0.63403200  0.27550200  1
  C  16  1  0.99007700  0.60903200  0.30525800  1
  C  17  1  0.99002600  0.63403200  0.36001800  1
  C  18  1  0.99007700  0.68879200  0.38501800  1
  C  19  1  0.99003600  0.60560300  0.21863900  1
  C  20  1  0.98998700  0.63070700  0.18867800  1
  C  21  1  0.99032900  0.60378400  0.13436700  1
  C  22  1  0.99092300  0.54959600  0.10662600  1
  C  23  1  0.99033900  0.52314700  0.13436700  1
  C  24  1  0.99000300  0.55053800  0.18867900  1
  C  25  1  0.99003200  0.77541100  0.38844700  1
  C  26  1  0.98998600  0.80537200  0.36334300  1
  C  27  1  0.99032000  0.85968400  0.39026700  1
  C  28  1  0.99091800  0.88742500  0.44445500  1
  C  29  1  0.99033300  0.85968400  0.47090400  1
  C  30  1  0.98999700  0.80537200  0.44351300  1
  C  31  1  0.99002100  0.60560100  0.38844900  1
  C  32  1  0.98998600  0.63070600  0.44351500  1
  C  33  1  0.99032000  0.60378300  0.47090500  1
  C  34  1  0.99091300  0.54959500  0.44445600  1
  C  35  1  0.99031900  0.52314500  0.39026700  1
  C  36  1  0.98998200  0.55053600  0.36334500  1
  C  52  1  0.99310300  0.27252300  0.63700500  1
  C  53  1  0.99317700  0.30228300  0.69176500  1
  C  54  1  0.99311400  0.35704300  0.72152500  1
  C  55  1  0.99317400  0.38204500  0.69176600  1
  C  56  1  0.99310300  0.35704300  0.63700400  1
  C  57  1  0.99315000  0.30228200  0.61200300  1
  C  58  1  0.99272100  0.38547400  0.77838900  1
  C  59  1  0.99222800  0.36036900  0.80834900  1
  C  60  1  0.99091200  0.38729200  0.86266000  1
  C  61  1  0.99017900  0.44147800  0.89039500  1
  C  62  1  0.99089100  0.46792600  0.86265800  1
  C  63  1  0.99222500  0.44054000  0.80834900  1
  C  64  1  0.99271800  0.21566100  0.60857200  1
  C  65  1  0.99222100  0.18569800  0.63367800  1
  C  66  1  0.99091400  0.13139300  0.60675700  1
  C  67  1  0.99020700  0.10365800  0.55257100  1
  C  68  1  0.99092100  0.13139200  0.52612000  1
  C  69  1  0.99223200  0.18569900  0.55350700  1
  C  70  1  0.99271100  0.38547500  0.60857300  1
  C  71  1  0.99223500  0.36037300  0.55351000  1
  C  72  1  0.99090700  0.38729400  0.52612300  1
  C  73  1  0.99022700  0.44147800  0.55257000  1
  C  74  1  0.99093300  0.46792900  0.60675800  1
  C  75  1  0.99222500  0.44054100  0.63367800  1
  C  91  1  0.98525400  0.46872300  0.94488500  1
  C  93  1  0.11143800  0.50799800  0.02343500  1
  C  94  1  0.99127300  0.52242900  0.05229500  1
  C  96  1  0.86430900  0.48322800  0.97388900  1
  C  98  1  0.74492700  0.47295600  0.95334600  1
  C  100  1  0.98528000  0.46872700  0.52532800  1
  C  102  1  0.11144300  0.50800400  0.48605100  1
  C  103  1  0.99127300  0.52242800  0.47162100  1
  C  105  1  0.86432500  0.48322300  0.51082500  1
  C  107  1  0.74494900  0.47294900  0.52109900  1
  C  109  1  0.98526800  0.04916300  0.52532500  1
  C  111  1  0.86431800  0.02016300  0.51082400  1
  C  112  1  0.74493800  0.04070700  0.52109700  1
  H  4  1  0.20350200  0.95305400  0.47727400  1
  H  37  1  0.99037400  0.87884600  0.36991900  1
  H  38  1  0.98974500  0.78887400  0.32432500  1
  H  39  1  0.99038800  0.87884500  0.51041400  1
  H  40  1  0.98976500  0.78887500  0.46603600  1
  H  41  1  0.98975500  0.66972700  0.46603600  1
  H  42  1  0.99038000  0.62413200  0.51041500  1
  H  43  1  0.98974700  0.52801400  0.32432300  1
  H  44  1  0.99037500  0.48363600  0.36991900  1
  H  45  1  0.98977200  0.52801400  0.20517500  1
  H  46  1  0.99039300  0.48363600  0.11520500  1
  H  47  1  0.99037400  0.62413200  0.11520500  1
  H  48  1  0.98974000  0.66972600  0.20517700  1
  H  49  1  0.99028900  0.70812000  0.28593100  1
  H  50  1  0.99023800  0.70811900  0.42367600  1
  H  51  1  0.99023900  0.57037400  0.28593100  1
  H  76  1  0.98962500  0.11222100  0.62709100  1
  H  77  1  0.99221100  0.20219500  0.67269500  1
  H  78  1  0.98966500  0.11222300  0.48661600  1
  H  79  1  0.99227900  0.20219600  0.53098500  1
  H  80  1  0.99224100  0.32135200  0.53098600  1
  H  81  1  0.98965600  0.36695700  0.48661600  1
  H  82  1  0.99221800  0.46306500  0.67269900  1
  H  83  1  0.98964900  0.50743400  0.62709400  1
  H  84  1  0.99225200  0.46306300  0.79185300  1
  H  85  1  0.98964000  0.50743300  0.88182700  1
  H  86  1  0.98965400  0.36695600  0.88182600  1
  H  87  1  0.99226500  0.32135200  0.79185200  1
  H  88  1  0.99338800  0.28295400  0.71109400  1
  H  89  1  0.99331500  0.28295700  0.57334900  1
  H  90  1  0.99337500  0.42070200  0.71109500  1
  H  97  1  0.20350100  0.51677500  0.04099100  1
  H  106  1  0.20350500  0.51678600  0.47727200  1
  N  3  1  0.87272400  0.96785100  0.48466900  1
  N  92  1  0.10370600  0.48185800  0.97115700  1
  N  95  1  0.87272300  0.50938400  0.02620200  1
  N  99  1  0.63979500  0.46378300  0.93500100  1
  N  101  1  0.10372700  0.48186500  0.51218900  1
  N  104  1  0.87272500  0.50937800  0.48466700  1
  N  108  1  0.63982600  0.46377000  0.53027100  1
  N  110  1  0.10371800  0.02288800  0.51218700  1
  N  113  1  0.63980700  0.05905600  0.53027000  1
