# generated using pymatgen
data_H28C41N8
_symmetry_space_group_name_H-M   'P 1'
_cell_length_a   34.28921671
_cell_length_b   34.28885762
_cell_length_c   34.28925658
_cell_angle_alpha   109.47304753
_cell_angle_beta   109.47203926
_cell_angle_gamma   109.46767948
_symmetry_Int_Tables_number   1
_chemical_formula_structural   H28C41N8
_chemical_formula_sum   'H168 C246 N48'
_cell_volume   31034.98635083
_cell_formula_units_Z   6
loop_
 _symmetry_equiv_pos_site_id
 _symmetry_equiv_pos_as_xyz
  1  'x, y, z'
loop_
 _atom_site_type_symbol
 _atom_site_label
 _atom_site_symmetry_multiplicity
 _atom_site_fract_x
 _atom_site_fract_y
 _atom_site_fract_z
 _atom_site_occupancy
  C  1  1  0.31106550  0.76638300  0.39448050  1
  C  2  1  0.34697700  0.80217450  0.39462950  1
  C  3  1  0.41151150  0.80105000  0.45803350  1
  C  4  1  0.37587050  0.76530650  0.45820300  1
  C  5  1  0.38994000  0.74799950  0.48963850  1
  C  6  1  0.43814750  0.76535200  0.52099550  1
  C  7  1  0.47340000  0.80079850  0.52044050  1
  C  8  1  0.46015450  0.81816450  0.48917500  1
  C  9  1  0.33294750  0.81965200  0.36346450  1
  C  10  1  0.28431400  0.80163650  0.33220550  1
  C  11  1  0.24831450  0.76589750  0.33172300  1
  C  12  1  0.26232500  0.74903700  0.36306700  1
  C  13  1  0.30312200  0.69355050  0.39341450  1
  C  14  1  0.26710050  0.65797400  0.39336650  1
  C  15  1  0.26858250  0.72245400  0.45932750  1
  C  16  1  0.30410550  0.75842650  0.45927400  1
  C  17  1  0.25232050  0.73630900  0.49170850  1
  C  18  1  0.27048750  0.78488000  0.52321950  1
  C  19  1  0.30491400  0.82107850  0.52273950  1
  C  20  1  0.32187000  0.80714000  0.49127100  1
  C  21  1  0.31984000  0.67931850  0.36141950  1
  C  22  1  0.30232100  0.63089400  0.32996300  1
  C  23  1  0.26563050  0.59598950  0.32947000  1
  C  24  1  0.24857900  0.60933200  0.36098900  1
  C  37  1  0.32354300  0.74591750  0.42634450  1
  C  38  1  0.24833600  0.67070550  0.42635050  1
  C  41  1  0.39875850  0.82112150  0.42632500  1
  C  48  1  0.84412850  0.23463350  0.45929600  1
  C  49  1  0.80821650  0.19887750  0.45918200  1
  C  50  1  0.74368500  0.19774450  0.39351850  1
  C  51  1  0.77932700  0.23354350  0.39340550  1
  C  52  1  0.76525900  0.25089650  0.36201550  1
  C  53  1  0.71705150  0.23402250  0.33113200  1
  C  54  1  0.68179850  0.19826300  0.33137750  1
  C  55  1  0.69504350  0.18025650  0.36200300  1
  C  56  1  0.82224350  0.18174900  0.49069650  1
  C  57  1  0.87087500  0.19912000  0.52131200  1
  C  58  1  0.90687800  0.23462550  0.52156450  1
  C  59  1  0.89287000  0.25195750  0.49068950  1
  C  60  1  0.85208150  0.24150850  0.39441100  1
  C  61  1  0.88810350  0.27748250  0.39485500  1
  C  62  1  0.88661200  0.34196050  0.45784550  1
  C  63  1  0.85108650  0.30638350  0.45829100  1
  C  64  1  0.90287200  0.39060300  0.48796000  1
  C  65  1  0.88469950  0.40394550  0.51836000  1
  C  66  1  0.85027650  0.36904000  0.52013350  1
  C  67  1  0.83331950  0.32061550  0.48923800  1
  C  68  1  0.83537050  0.19279700  0.36346750  1
  C  69  1  0.85290350  0.17886050  0.33257500  1
  C  70  1  0.88958100  0.21505700  0.33434800  1
  C  71  1  0.90662850  0.26362600  0.36473950  1
  C  84  1  0.83165450  0.25401550  0.42635100  1
  C  85  1  0.90686350  0.32922900  0.42634850  1
  C  88  1  0.75643600  0.17879550  0.42635150  1
  C  95  1  0.84292700  0.53180750  0.22462150  1
  C  96  1  0.87870300  0.53166950  0.26026250  1
  C  97  1  0.87982950  0.46826500  0.19572950  1
  C  98  1  0.84401600  0.46809850  0.15981850  1
  C  99  1  0.82665500  0.43666800  0.11107400  1
  C  100  1  0.84352650  0.40532950  0.09706700  1
  C  101  1  0.87931250  0.40585900  0.13306950  1
  C  102  1  0.89732250  0.43711300  0.18170250  1
  C  103  1  0.89585300  0.56284650  0.30890850  1
  C  104  1  0.87845900  0.59408600  0.32215300  1
  C  105  1  0.84292100  0.59455400  0.28690000  1
  C  106  1  0.82558650  0.56321150  0.23869100  1
  C  107  1  0.83604700  0.53288650  0.15285950  1
  C  108  1  0.80007400  0.53293850  0.11733250  1
  C  109  1  0.73560000  0.46697400  0.11584400  1
  C  110  1  0.77117700  0.46701950  0.15186450  1
  C  111  1  0.68695750  0.43459700  0.09731950  1
  C  112  1  0.67362000  0.40307750  0.11436950  1
  C  113  1  0.70852450  0.40354950  0.15104000  1
  C  114  1  0.75694850  0.43502000  0.16857750  1
  C  115  1  0.88475850  0.56488500  0.17062750  1
  C  116  1  0.89869200  0.59635750  0.15367650  1
  C  117  1  0.86249500  0.59682950  0.11924150  1
  C  118  1  0.81392500  0.56531550  0.10106850  1
  C  131  1  0.82354300  0.49995250  0.17229250  1
  C  132  1  0.74832700  0.49995750  0.09708050  1
  C  135  1  0.89879600  0.49998000  0.24751300  1
  C  142  1  0.31116650  0.46702600  0.62805750  1
  C  143  1  0.27536950  0.46714300  0.59241550  1
  C  144  1  0.27649700  0.53280000  0.65695100  1
  C  145  1  0.31225550  0.53291150  0.69286200  1
  C  146  1  0.32957700  0.56430100  0.74160600  1
  C  147  1  0.31225100  0.59518250  0.75561650  1
  C  148  1  0.27674450  0.59493350  0.71961500  1
  C  149  1  0.25936200  0.56430850  0.67098150  1
  C  150  1  0.25788250  0.43563200  0.54377050  1
  C  151  1  0.27589100  0.40500750  0.53052350  1
  C  152  1  0.31164300  0.40475300  0.56577600  1
  C  153  1  0.32851900  0.43563400  0.61398400  1
  C  154  1  0.38400450  0.53190700  0.69982150  1
  C  155  1  0.41958300  0.53145200  0.73534100  1
  C  156  1  0.35510900  0.46846350  0.73682850  1
  C  157  1  0.31913550  0.46802400  0.70081050  1
  C  158  1  0.34125700  0.43834350  0.75534950  1
  C  159  1  0.29268800  0.40795100  0.73829700  1
  C  160  1  0.25649100  0.40618600  0.70162700  1
  C  161  1  0.27042350  0.43708050  0.68409800  1
  C  162  1  0.39823550  0.56285500  0.68205650  1
  C  163  1  0.44665800  0.59374950  0.69901650  1
  C  164  1  0.48156350  0.59196150  0.73342800  1
  C  165  1  0.46822350  0.56156000  0.75159650  1
  C  178  1  0.33163900  0.49996750  0.68038750  1
  C  179  1  0.40685450  0.49995200  0.75558850  1
  C  182  1  0.25641850  0.49997500  0.60516950  1
  C  189  1  0.54466400  0.70170050  0.15992950  1
  C  190  1  0.54477750  0.66605550  0.12412900  1
  C  191  1  0.61042700  0.73058150  0.12525050  1
  C  192  1  0.61053450  0.76649650  0.16100100  1
  C  193  1  0.64191500  0.81523900  0.17831300  1
  C  194  1  0.67275500  0.82924000  0.16094800  1
  C  195  1  0.67255500  0.79323800  0.12549000  1
  C  196  1  0.64194500  0.74460700  0.10812500  1
  C  197  1  0.51326900  0.61741350  0.10664750  1
  C  198  1  0.48264050  0.60417050  0.12465200  1
  C  199  1  0.48242000  0.63942600  0.16043200  1
  C  200  1  0.51328050  0.68763500  0.17728750  1
  C  201  1  0.60955050  0.77346850  0.23276200  1
  C  202  1  0.60909900  0.80899150  0.26834150  1
  C  203  1  0.54609450  0.81046950  0.20386600  1
  C  204  1  0.54565200  0.77444800  0.16789100  1
  C  205  1  0.51597350  0.82899050  0.19001500  1
  C  206  1  0.48558250  0.81194400  0.14144550  1
  C  207  1  0.48380800  0.77526400  0.10524500  1
  C  208  1  0.51470350  0.75773100  0.11917650  1
  C  209  1  0.64050350  0.75570650  0.24699100  1
  C  210  1  0.67140000  0.77266650  0.29541550  1
  C  211  1  0.66962350  0.80708700  0.33032250  1
  C  212  1  0.63922150  0.82525600  0.31698350  1
  C  225  1  0.57760100  0.75402800  0.18039500  1
  C  226  1  0.57759300  0.82923400  0.25561500  1
  C  229  1  0.57760450  0.67880050  0.10517600  1
  C  236  1  0.60945250  0.29825300  0.69167250  1
  C  237  1  0.60930950  0.33389600  0.72744450  1
  C  238  1  0.54591250  0.26936450  0.72857200  1
  C  239  1  0.54574300  0.23345150  0.69275650  1
  C  240  1  0.51431550  0.18471000  0.67539450  1
  C  241  1  0.48295400  0.17070200  0.69223900  1
  C  242  1  0.48351050  0.20670500  0.72805350  1
  C  243  1  0.51477000  0.25533700  0.74607200  1
  C  244  1  0.64047850  0.38253850  0.74459100  1
  C  245  1  0.67172750  0.39578100  0.72720750  1
  C  246  1  0.67219750  0.36052900  0.69166850  1
  C  247  1  0.64085900  0.31232400  0.67433700  1
  C  248  1  0.61053050  0.22648950  0.68479200  1
  C  249  1  0.61058100  0.19096000  0.64881800  1
  C  250  1  0.54461600  0.18947300  0.58434000  1
  C  251  1  0.54466700  0.22550000  0.61991700  1
  C  252  1  0.51223250  0.17094400  0.53569650  1
  C  253  1  0.48072200  0.18800350  0.52235450  1
  C  254  1  0.48120750  0.22468850  0.55726200  1
  C  255  1  0.51266950  0.24221750  0.60568700  1
  C  256  1  0.64253150  0.24425750  0.73350300  1
  C  257  1  0.67400150  0.22730150  0.74743800  1
  C  258  1  0.67447950  0.19287300  0.71124050  1
  C  259  1  0.64296100  0.17469600  0.66267000  1
  C  272  1  0.57759900  0.24592400  0.67228600  1
  C  273  1  0.57759600  0.17070400  0.59706900  1
  C  276  1  0.57761900  0.32114450  0.74753350  1
  C  565  1  0.37091050  0.02794050  0.58966300  1
  C  566  1  0.39516600  0.04684100  0.63999100  1
  C  567  1  0.39418350  0.01346650  0.65579100  1
  C  569  1  0.34959850  0.94855650  0.57602600  1
  C  572  1  0.36564600  0.05563500  0.56500800  1
  C  576  1  0.32909100  0.90110550  0.54266050  1
  C  578  1  0.42035950  0.09532350  0.67315400  1
  C  580  1  0.78426150  0.36995100  0.66098550  1
  C  581  1  0.76003850  0.39605650  0.65565300  1
  C  582  1  0.76106350  0.41287600  0.62329450  1
  C  584  1  0.80558750  0.37763000  0.60292250  1
  C  587  1  0.78949250  0.35053350  0.69392100  1
  C  591  1  0.82611050  0.36478600  0.57598950  1
  C  593  1  0.73484100  0.40402900  0.67893500  1
  C  595  1  0.71294000  0.97201000  0.19169600  1
  C  596  1  0.74436550  0.95310350  0.19702400  1
  C  597  1  0.79354350  0.98647800  0.22938950  1
  C  599  1  0.77868900  0.05138550  0.24977650  1
  C  602  1  0.66058850  0.94431850  0.15874600  1
  C  606  1  0.79278550  0.09884500  0.27669950  1
  C  608  1  0.72904250  0.90462200  0.17372850  1
  C  610  1  0.44226350  0.62999250  0.26304000  1
  C  611  1  0.41083550  0.60390850  0.21271200  1
  C  612  1  0.36165250  0.58707950  0.19691100  1
  C  614  1  0.37651650  0.62230450  0.27667800  1
  C  617  1  0.49461450  0.64940100  0.28769450  1
  C  621  1  0.36242750  0.63515100  0.31004350  1
  C  623  1  0.42615050  0.59592900  0.17954750  1
  C  625  1  0.70760100  0.33663400  0.29098700  1
  C  626  1  0.68151350  0.28630750  0.25955600  1
  C  627  1  0.66472200  0.27051050  0.21037850  1
  C  629  1  0.69992000  0.35027600  0.22524100  1
  C  632  1  0.72700300  0.36128800  0.34334000  1
  C  636  1  0.71278200  0.38363950  0.21115550  1
  C  638  1  0.67354600  0.25314100  0.27486900  1
  C  640  1  0.04963100  0.26532950  0.56168950  1
  C  641  1  0.03073950  0.27066100  0.59312550  1
  C  642  1  0.06412550  0.30302700  0.64230550  1
  C  644  1  0.12901550  0.32339950  0.62743000  1
  C  647  1  0.02192650  0.23238650  0.50933500  1
  C  651  1  0.17646750  0.35033150  0.64151700  1
  C  653  1  0.98226150  0.24737750  0.57781700  1
  C  655  1  0.44759350  0.73461600  0.63302150  1
  C  656  1  0.47368000  0.72927000  0.60878200  1
  C  657  1  0.49047950  0.69689250  0.60978500  1
  C  659  1  0.45523900  0.67652250  0.65430850  1
  C  662  1  0.42820450  0.76757700  0.63828550  1
  C  666  1  0.44240900  0.64960100  0.67484500  1
  C  668  1  0.48165650  0.75256250  0.58359400  1
  C  670  1  0.10555500  0.66326800  0.21968000  1
  C  671  1  0.12444750  0.71359600  0.24391050  1
  C  672  1  0.09106400  0.72939450  0.24287750  1
  C  674  1  0.02617000  0.64963200  0.19835600  1
  C  677  1  0.13325400  0.63861300  0.21444600  1
  C  681  1  0.97871800  0.61626700  0.17784600  1
  C  683  1  0.17292650  0.74676000  0.26909250  1
  C  685  1  0.34295200  0.63532300  0.89837700  1
  C  686  1  0.34829150  0.66675450  0.87948100  1
  C  687  1  0.38067150  0.71593150  0.91286400  1
  C  689  1  0.40101000  0.70106950  0.97776750  1
  C  692  1  0.31000750  0.58297400  0.87067650  1
  C  696  1  0.42795500  0.71515450  0.02521750  1
  C  698  1  0.32500900  0.65144250  0.83100050  1
  C  700  1  0.41426150  0.36461850  0.55633400  1
  C  701  1  0.36393800  0.33318250  0.53024250  1
  C  702  1  0.34814750  0.28400550  0.51343800  1
  C  704  1  0.42791500  0.29887950  0.54866950  1
  C  707  1  0.43890650  0.41696850  0.57573400  1
  C  711  1  0.46128350  0.28479350  0.56150900  1
  C  713  1  0.33076600  0.34849250  0.52227050  1
  C  715  1  0.74092700  0.29330050  0.95430550  1
  C  716  1  0.79125250  0.31753100  0.97319750  1
  C  717  1  0.80704750  0.31651550  0.93981500  1
  C  719  1  0.72728350  0.27200050  0.87492200  1
  C  722  1  0.71627700  0.28805050  0.98200550  1
  C  726  1  0.69391550  0.25146550  0.82746300  1
  C  728  1  0.82441850  0.34272000  0.02167750  1
  C  730  1  0.81223800  0.70662650  0.29630950  1
  C  731  1  0.80690450  0.68240350  0.32241200  1
  C  732  1  0.77456450  0.68345350  0.33925300  1
  C  734  1  0.75419200  0.72797400  0.30400700  1
  C  737  1  0.84516250  0.71184200  0.27687750  1
  C  741  1  0.72725150  0.74848750  0.29115300  1
  C  743  1  0.83019200  0.65721100  0.33039200  1
  H  25  1  0.25164100  0.56054550  0.30667050  1
  H  26  1  0.22234550  0.58310200  0.36017250  1
  H  27  1  0.22691450  0.71089050  0.49253100  1
  H  28  1  0.25786600  0.79368900  0.54604100  1
  H  29  1  0.34795300  0.83318350  0.49171950  1
  H  30  1  0.34543550  0.70495450  0.36097000  1
  H  31  1  0.36418450  0.72264300  0.49028150  1
  H  32  1  0.50878650  0.81483150  0.54335500  1
  H  33  1  0.48644850  0.84423250  0.48989200  1
  H  34  1  0.23632850  0.72264000  0.36243150  1
  H  35  1  0.35829600  0.84522150  0.36273450  1
  H  36  1  0.27543000  0.81411750  0.30930050  1
  H  39  1  0.20977500  0.65504100  0.40454900  1
  H  40  1  0.25447800  0.65394800  0.44815200  1
  H  42  1  0.41533850  0.85968650  0.44903300  1
  H  43  1  0.41459850  0.81497000  0.40360450  1
  H  72  1  0.90357900  0.20624800  0.31290100  1
  H  73  1  0.93286150  0.28904400  0.36474350  1
  H  74  1  0.92828100  0.41683300  0.48795300  1
  H  75  1  0.89732850  0.43938950  0.53979800  1
  H  76  1  0.80723600  0.29498050  0.48919950  1
  H  77  1  0.80977450  0.16675000  0.36350550  1
  H  78  1  0.79101400  0.27728900  0.36241000  1
  H  79  1  0.64641300  0.18579300  0.31002600  1
  H  80  1  0.66874750  0.15468850  0.36178400  1
  H  81  1  0.91886700  0.27731600  0.49029100  1
  H  82  1  0.79689500  0.15566700  0.49091400  1
  H  83  1  0.87975750  0.18509300  0.54267150  1
  H  86  1  0.94542350  0.34599200  0.44924850  1
  H  87  1  0.90072300  0.34488850  0.40344850  1
  H  89  1  0.73985900  0.18493550  0.44833750  1
  H  90  1  0.74058900  0.14023300  0.40436500  1
  H  119  1  0.87130200  0.61964550  0.10661550  1
  H  120  1  0.78850650  0.56613500  0.07565750  1
  H  121  1  0.66072800  0.43378400  0.07108700  1
  H  122  1  0.63817550  0.38027200  0.10037150  1
  H  123  1  0.78258450  0.43456900  0.19417250  1
  H  124  1  0.91080550  0.56533550  0.19671600  1
  H  125  1  0.80025600  0.43602800  0.08507700  1
  H  126  1  0.89180550  0.38296550  0.12418600  1
  H  127  1  0.92292650  0.43641700  0.20705250  1
  H  128  1  0.80023300  0.56385750  0.21293150  1
  H  129  1  0.92194200  0.56358300  0.33520600  1
  H  130  1  0.89250850  0.61701800  0.35753950  1
  H  133  1  0.73156800  0.52175950  0.10322350  1
  H  134  1  0.73266450  0.47816100  0.05851950  1
  H  136  1  0.89268150  0.47727600  0.26337550  1
  H  137  1  0.93735250  0.52270150  0.26407300  1
  H  166  1  0.51700650  0.61338700  0.74604650  1
  H  167  1  0.49445350  0.56154200  0.77699650  1
  H  168  1  0.36667700  0.43834650  0.78158250  1
  H  169  1  0.28388200  0.38650800  0.75229900  1
  H  170  1  0.24437800  0.43712550  0.65850650  1
  H  171  1  0.37260000  0.56281900  0.65597500  1
  H  172  1  0.35493850  0.56390100  0.76760250  1
  H  173  1  0.26272850  0.61630350  0.72849900  1
  H  174  1  0.23330300  0.56454900  0.64563200  1
  H  175  1  0.35491100  0.43602550  0.63974150  1
  H  176  1  0.23230800  0.43541150  0.51747450  1
  H  177  1  0.26341250  0.38364950  0.49513700  1
  H  180  1  0.42251150  0.47704950  0.74944200  1
  H  181  1  0.42362100  0.52284700  0.79415100  1
  H  183  1  0.21785750  0.47799000  0.58931850  1
  H  184  1  0.26255800  0.52196400  0.58859700  1
  H  213  1  0.69106600  0.81972100  0.36576800  1
  H  214  1  0.63920850  0.85066350  0.34321500  1
  H  215  1  0.51597350  0.85522200  0.21543450  1
  H  216  1  0.46412850  0.82593400  0.13263950  1
  H  217  1  0.51474350  0.73213650  0.09312900  1
  H  218  1  0.64046650  0.72962300  0.22135350  1
  H  219  1  0.64150750  0.84123950  0.20366400  1
  H  220  1  0.69390850  0.80211650  0.11145900  1
  H  221  1  0.64217500  0.71925350  0.08205750  1
  H  222  1  0.51368600  0.71339400  0.20369300  1
  H  223  1  0.51303700  0.59111500  0.08106300  1
  H  224  1  0.46129500  0.56878600  0.11218400  1
  H  227  1  0.55470050  0.82308950  0.27127300  1
  H  228  1  0.60048650  0.86780100  0.27237950  1
  H  230  1  0.55561800  0.66294650  0.06661050  1
  H  231  1  0.59959550  0.66222900  0.11131850  1
  H  260  1  0.69729250  0.18024100  0.72004750  1
  H  261  1  0.64377700  0.14928150  0.63724950  1
  H  262  1  0.51140950  0.14470000  0.50946650  1
  H  263  1  0.45790100  0.17399200  0.48691200  1
  H  264  1  0.51221850  0.26781150  0.63132200  1
  H  265  1  0.64298200  0.27034450  0.75955050  1
  H  266  1  0.51366350  0.15871150  0.64898200  1
  H  267  1  0.46060050  0.19782600  0.74052750  1
  H  268  1  0.51406050  0.28068850  0.77166100  1
  H  269  1  0.64150100  0.28656300  0.64897800  1
  H  270  1  0.64121100  0.40883550  0.77067350  1
  H  271  1  0.69463850  0.43116750  0.74124000  1
  H  274  1  0.59939150  0.17683550  0.58030500  1
  H  275  1  0.55579600  0.13214600  0.58141000  1
  H  277  1  0.55491150  0.33700450  0.74141400  1
  H  278  1  0.60034100  0.33771000  0.78609400  1
  H  571  1  0.41110700  0.02450000  0.69142900  1
  H  573  1  0.37851000  0.09283250  0.58926450  1
  H  574  1  0.32798850  0.03972000  0.53939850  1
  H  575  1  0.38533900  0.05461550  0.54573850  1
  H  577  1  0.32002050  0.89317100  0.50906250  1
  H  579  1  0.41302800  0.10737950  0.69888350  1
  H  586  1  0.74415300  0.43160500  0.61741100  1
  H  588  1  0.77663100  0.36193100  0.71825400  1
  H  589  1  0.82713850  0.36255150  0.71565900  1
  H  590  1  0.76977550  0.31157250  0.67319100  1
  H  592  1  0.83518400  0.34025850  0.57712550  1
  H  594  1  0.74216650  0.43709050  0.69831600  1
  H  601  1  0.81814950  0.97544400  0.23526850  1
  H  603  1  0.64764700  0.90712450  0.13440350  1
  H  604  1  0.65088550  0.96024250  0.13701900  1
  H  605  1  0.64234750  0.94532950  0.17946900  1
  H  607  1  0.76712900  0.10679050  0.27556850  1
  H  609  1  0.74270550  0.89256550  0.15432800  1
  H  616  1  0.33705000  0.56837150  0.16127450  1
  H  618  1  0.50755700  0.63801300  0.26343900  1
  H  619  1  0.50432500  0.63736950  0.31331350  1
  H  620  1  0.51285000  0.68836550  0.30695250  1
  H  622  1  0.38808850  0.65968500  0.34364150  1
  H  624  1  0.41247850  0.56286600  0.15382350  1
  H  631  1  0.64599950  0.23487250  0.18577100  1
  H  633  1  0.71560750  0.33702900  0.35627550  1
  H  634  1  0.71496650  0.38690550  0.35304400  1
  H  635  1  0.76596400  0.38054300  0.36158200  1
  H  637  1  0.73731500  0.41723450  0.23681850  1
  H  639  1  0.64048750  0.22740500  0.26118550  1
  H  646  1  0.05309850  0.30891150  0.66691600  1
  H  648  1  0.98473350  0.20804800  0.49640050  1
  H  649  1  0.03784250  0.21065200  0.49962050  1
  H  650  1  0.02292900  0.25311100  0.49109800  1
  H  652  1  0.18440150  0.34920100  0.61585450  1
  H  654  1  0.97021250  0.22799400  0.59149650  1
  H  661  1  0.50919900  0.69100200  0.59286600  1
  H  663  1  0.43961050  0.79191850  0.62543600  1
  H  664  1  0.44023550  0.78930800  0.67594050  1
  H  665  1  0.38924150  0.74686850  0.61857600  1
  H  667  1  0.41789450  0.65075200  0.68393150  1
  H  669  1  0.51471800  0.77195050  0.59093250  1
  H  676  1  0.10209500  0.76503400  0.25979600  1
  H  678  1  0.17045050  0.66286850  0.22730900  1
  H  679  1  0.11734400  0.61298650  0.17679650  1
  H  680  1  0.13224100  0.61936650  0.23416150  1
  H  682  1  0.97078600  0.58267150  0.16878750  1
  H  684  1  0.18497250  0.77248100  0.26174850  1
  H  691  1  0.38655300  0.74053900  0.90183200  1
  H  693  1  0.28567650  0.57003500  0.83347950  1
  H  694  1  0.28826650  0.57326600  0.88658550  1
  H  695  1  0.33073000  0.56473000  0.87169200  1
  H  697  1  0.42683000  0.68948800  0.03314700  1
  H  699  1  0.30563000  0.66512500  0.81895100  1
  H  706  1  0.31251100  0.25939600  0.49472000  1
  H  708  1  0.41464550  0.42990150  0.56433300  1
  H  709  1  0.46452850  0.42667750  0.56370600  1
  H  710  1  0.45815850  0.43521300  0.61469750  1
  H  712  1  0.49488250  0.31045600  0.58603450  1
  H  714  1  0.30502800  0.33480500  0.48921000  1
  H  721  1  0.84268350  0.33342700  0.95084150  1
  H  723  1  0.74053400  0.30090050  0.01919650  1
  H  724  1  0.69065150  0.25039950  0.96608300  1
  H  725  1  0.69702900  0.30776700  0.98100400  1
  H  727  1  0.66031750  0.24239200  0.81952550  1
  H  729  1  0.85014500  0.33538300  0.03372800  1
  H  736  1  0.76867950  0.66654200  0.35797850  1
  H  738  1  0.86949150  0.69897250  0.28826900  1
  H  739  1  0.86690650  0.74948850  0.28889500  1
  H  740  1  0.82442500  0.69212400  0.23791500  1
  H  742  1  0.72837350  0.75754200  0.26661150  1
  H  744  1  0.84957250  0.66454450  0.36345600  1
  N  44  1  0.32220600  0.86719700  0.55268700  1
  N  45  1  0.20166100  0.74359700  0.30165800  1
  N  46  1  0.44592650  0.74875150  0.55105000  1
  N  47  1  0.31849100  0.61823850  0.30001350  1
  N  91  1  0.83298200  0.38169200  0.54896000  1
  N  92  1  0.95353100  0.25120700  0.54591600  1
  N  93  1  0.70927850  0.25632100  0.30677650  1
  N  94  1  0.83672450  0.13273900  0.30374350  1
  N  138  1  0.69586900  0.37360900  0.16722000  1
  N  139  1  0.82635050  0.62463800  0.29466150  1
  N  140  1  0.82123800  0.37527150  0.05041150  1
  N  141  1  0.94481150  0.62629700  0.17096150  1
  N  185  1  0.21037200  0.37735900  0.68545300  1
  N  186  1  0.33394500  0.38040050  0.55800450  1
  N  187  1  0.32883700  0.61953550  0.80227050  1
  N  188  1  0.45930700  0.62256250  0.68171050  1
  N  232  1  0.45497450  0.75908850  0.05912600  1
  N  233  1  0.45805750  0.63166000  0.18272350  1
  N  234  1  0.69713250  0.87589550  0.17755100  1
  N  235  1  0.70023400  0.75537800  0.30807000  1
  N  279  1  0.45125450  0.24085750  0.54460800  1
  N  280  1  0.70227600  0.36829650  0.67509550  1
  N  281  1  0.45290250  0.12405100  0.66996250  1
  N  282  1  0.70394900  0.24459700  0.79356100  1
  N  568  1  0.37214400  0.96608250  0.62398850  1
  N  570  1  0.34985750  0.98011550  0.56036600  1
  N  583  1  0.78309000  0.40309350  0.59793950  1
  N  585  1  0.80531100  0.36169650  0.63421050  1
  N  598  1  0.80912700  0.03386100  0.25475400  1
  N  600  1  0.73146850  0.01983250  0.21847700  1
  N  613  1  0.34607500  0.59685700  0.22871600  1
  N  615  1  0.42373750  0.63823700  0.29233850  1
  N  628  1  0.67449050  0.30231400  0.19480150  1
  N  630  1  0.71584800  0.36593350  0.27246250  1
  N  643  1  0.11150250  0.32838450  0.65787700  1
  N  645  1  0.09745050  0.29210550  0.58020800  1
  N  658  1  0.48069450  0.67153150  0.63180300  1
  N  660  1  0.43933250  0.70783500  0.65406250  1
  N  673  1  0.04368500  0.69759300  0.22085700  1
  N  675  1  0.05773200  0.63396950  0.19863250  1
  N  688  1  0.40601750  0.73150900  0.96024550  1
  N  690  1  0.36972150  0.65384850  0.94620200  1
  N  703  1  0.37995600  0.26843400  0.52322000  1
  N  705  1  0.44356700  0.34609950  0.56459050  1
  N  718  1  0.77524200  0.29449750  0.89243550  1
  N  720  1  0.71162500  0.27225850  0.90648150  1
  N  733  1  0.74921000  0.70548050  0.32947150  1
  N  735  1  0.78546850  0.72768300  0.28806050  1
