# generated using pymatgen
data_H32C41N24
_symmetry_space_group_name_H-M   'P 1'
_cell_length_a   18.57614042
_cell_length_b   18.57623973
_cell_length_c   18.57604111
_cell_angle_alpha   60.03974916
_cell_angle_beta   75.50484684
_cell_angle_gamma   104.49543249
_symmetry_Int_Tables_number   1
_chemical_formula_structural   H32C41N24
_chemical_formula_sum   'H32 C41 N24'
_cell_volume   4808.55425794
_cell_formula_units_Z   1
loop_
 _symmetry_equiv_pos_site_id
 _symmetry_equiv_pos_as_xyz
  1  'x, y, z'
loop_
 _atom_site_type_symbol
 _atom_site_label
 _atom_site_symmetry_multiplicity
 _atom_site_fract_x
 _atom_site_fract_y
 _atom_site_fract_z
 _atom_site_occupancy
  C  1  1  0.90017800  0.56353850  0.71191350  1
  C  3  1  0.76105375  0.44768150  0.77760775  1
  C  5  1  0.80163425  0.49529725  0.86428700  1
  C  13  1  0.98991300  0.38496700  0.44116700  1
  C  15  1  0.12937750  0.46028875  0.41603725  1
  C  17  1  0.08933675  0.33264125  0.40954850  1
  C  25  1  0.71972025  0.34784100  0.65827775  1
  C  27  1  0.77030025  0.32474100  0.54239075  1
  C  29  1  0.63629475  0.31857550  0.58894075  1
  C  37  1  0.17031325  0.62063325  0.47514300  1
  C  39  1  0.11937125  0.68479325  0.55008200  1
  C  41  1  0.25330825  0.77308725  0.42195100  1
  C  97  1  0.47496125  0.22607350  0.39042225  1
  C  98  1  0.46303550  0.13601525  0.45450675  1
  C  99  1  0.42670225  0.07912725  0.43342700  1
  C  100  1  0.41538475  0.13194125  0.35499950  1
  C  101  1  0.38030350  0.08849525  0.31943375  1
  C  102  1  0.35775375  0.99265700  0.36198825  1
  C  103  1  0.36820100  0.94109725  0.44280025  1
  C  104  1  0.40262375  0.98374175  0.47877700  1
  C  105  1  0.48649350  0.11396175  0.52634725  1
  C  106  1  0.52088700  0.18388550  0.53517850  1
  C  107  1  0.53189575  0.27543325  0.47326950  1
  C  108  1  0.51002075  0.29624250  0.39940075  1
  C  109  1  0.51045400  0.29929200  0.22285700  1
  C  110  1  0.48500800  0.36371600  0.17018500  1
  C  111  1  0.40703950  0.34311025  0.22707775  1
  C  112  1  0.38088150  0.26465900  0.31700750  1
  C  113  1  0.35735800  0.38877500  0.20508000  1
  C  114  1  0.27845500  0.35298250  0.27489750  1
  C  115  1  0.24858175  0.27204700  0.36627625  1
  C  116  1  0.30156925  0.22926300  0.38706775  1
  C  117  1  0.58947350  0.30770300  0.17936450  1
  C  118  1  0.64290725  0.38132575  0.08365050  1
  C  119  1  0.61376875  0.44355700  0.03220625  1
  C  120  1  0.53514725  0.43529200  0.07489075  1
  C  133  1  0.44542325  0.23049875  0.32133150  1
  C  134  1  0.16265225  0.22928075  0.43943550  1
  C  137  1  0.72849050  0.39305150  0.04095900  1
  C  140  1  0.32652400  0.94985375  0.31928675  1
  C  143  1  0.56290200  0.34884300  0.48557000  1
  H  8  1  0.65171600  0.36418000  0.79684100  1
  H  10  1  0.79051150  0.53994875  0.94464425  1
  H  12  1  0.97361700  0.60003325  0.59107025  1
  H  20  1  0.23854725  0.55119900  0.38958175  1
  H  22  1  0.10181400  0.26407425  0.35317625  1
  H  24  1  0.91575700  0.43078800  0.48000400  1
  H  32  1  0.83515400  0.30025425  0.45784525  1
  H  34  1  0.51142600  0.26328000  0.63255800  1
  H  36  1  0.80382650  0.38422500  0.69536050  1
  H  44  1  0.05453325  0.70297475  0.64082750  1
  H  46  1  0.37813625  0.85449375  0.35258750  1
  H  48  1  0.08637550  0.49958750  0.52239700  1
  H  121  1  0.64965600  0.49649950  0.96302650  1
  H  122  1  0.51572875  0.48162925  0.03689650  1
  H  123  1  0.37726275  0.44637500  0.13927025  1
  H  124  1  0.24288850  0.38661275  0.25741825  1
  H  125  1  0.28173950  0.17077225  0.45236975  1
  H  126  1  0.60877750  0.26172525  0.21829775  1
  H  127  1  0.37339200  0.12748925  0.26111225  1
  H  128  1  0.35162975  0.87183150  0.47627375  1
  H  129  1  0.41065075  0.94563975  0.53640600  1
  H  130  1  0.51723550  0.36166525  0.35363475  1
  H  131  1  0.47799325  0.04807025  0.57245700  1
  H  132  1  0.53695700  0.16639525  0.58828425  1
  H  135  1  0.13503150  0.15481925  0.47201175  1
  H  136  1  0.16655775  0.23673350  0.49333775  1
  H  138  1  0.72393100  0.33478575  0.03803575  1
  H  139  1  0.75608950  0.38807675  0.08782125  1
  H  141  1  0.36787375  0.99696675  0.24467300  1
  H  142  1  0.26502900  0.94627000  0.32758700  1
  H  144  1  0.52136825  0.38186975  0.48028250  1
  H  145  1  0.62433500  0.40234975  0.42769375  1
  N  2  1  0.83933325  0.50864375  0.70912550  1
  N  4  1  0.74233000  0.44253425  0.85627525  1
  N  6  1  0.88034575  0.55413500  0.79265925  1
  N  7  1  0.71197875  0.39432700  0.76161325  1
  N  9  1  0.78947400  0.48245500  0.94874800  1
  N  11  1  0.97557125  0.61123775  0.63711150  1
  N  14  1  0.05069100  0.44932575  0.43447775  1
  N  16  1  0.14854625  0.40062125  0.40230500  1
  N  18  1  0.01021800  0.32437700  0.43053600  1
  N  19  1  0.17825000  0.52557200  0.42022700  1
  N  21  1  0.10219275  0.26076925  0.40992650  1
  N  23  1  0.91410200  0.38304850  0.47041550  1
  N  26  1  0.77741725  0.34157375  0.60375750  1
  N  28  1  0.69714225  0.31187625  0.53646300  1
  N  30  1  0.64875400  0.33814850  0.64808850  1
  N  31  1  0.83985450  0.32939525  0.48894775  1
  N  33  1  0.56503025  0.31974300  0.57541175  1
  N  35  1  0.74677550  0.37556175  0.70599225  1
  N  38  1  0.11249725  0.61687900  0.53952575  1
  N  40  1  0.19239500  0.76407800  0.48998400  1
  N  42  1  0.24110850  0.70197475  0.41409425  1
  N  43  1  0.04978167  0.66792342  0.61559475  1
  N  45  1  0.32451375  0.85807550  0.34983675  1
  N  47  1  0.14334525  0.54620800  0.47393075  1
