# generated using pymatgen
data_AgH8C9N4
_symmetry_space_group_name_H-M   'P 1'
_cell_length_a   15.05297000
_cell_length_b   15.08809000
_cell_length_c   19.25624000
_cell_angle_alpha   72.05973000
_cell_angle_beta   72.12179000
_cell_angle_gamma   80.18698000
_symmetry_Int_Tables_number   1
_chemical_formula_structural   AgH8C9N4
_chemical_formula_sum   'Ag12 H96 C108 N48'
_cell_volume   3945.99207446
_cell_formula_units_Z   12
loop_
 _symmetry_equiv_pos_site_id
 _symmetry_equiv_pos_as_xyz
  1  'x, y, z'
loop_
 _atom_site_type_symbol
 _atom_site_label
 _atom_site_symmetry_multiplicity
 _atom_site_fract_x
 _atom_site_fract_y
 _atom_site_fract_z
 _atom_site_occupancy
  Ag  Ag0  1  0.60406000  0.85150000  0.80762000  1
  Ag  Ag1  1  0.66185000  0.92541000  0.65587000  1
  Ag  Ag2  1  0.14924000  0.39489000  0.69214000  1
  Ag  Ag3  1  0.07700000  0.33589000  0.84408000  1
  Ag  Ag4  1  0.39594000  0.14850000  0.19238000  1
  Ag  Ag5  1  0.33815000  0.07459000  0.34413000  1
  Ag  Ag6  1  0.85077000  0.60511000  0.30786000  1
  Ag  Ag7  1  0.92300000  0.66411000  0.15591000  1
  Ag  Ag8  1  0.35577000  0.64410000  0.24989000  1
  Ag  Ag9  1  0.64424000  0.35590000  0.75010000  1
  Ag  Ag10  1  0.11092000  0.88904000  0.74984000  1
  Ag  Ag11  1  0.88909000  0.11096000  0.25016000  1
  H  H12  1  0.79637000  0.77798000  0.72068000  1
  H  H13  1  0.63933000  0.67758000  0.97583000  1
  H  H14  1  0.45589000  0.91657000  0.97153000  1
  H  H15  1  0.51811000  0.58535000  0.08334000  1
  H  H16  1  0.38741000  0.01157000  0.07552000  1
  H  H17  1  0.26470000  0.79504000  0.13359000  1
  H  H18  1  0.29127000  0.90341000  0.06202000  1
  H  H19  1  0.48325000  0.94380000  0.26749000  1
  H  H20  1  0.50479000  0.73659000  0.65819000  1
  H  H21  1  0.57813000  0.80836000  0.67491000  1
  H  H22  1  0.17865000  0.75424000  0.89124000  1
  H  H23  1  0.10390000  0.64666000  0.01589000  1
  H  H24  1  0.40901000  0.79206000  0.31508000  1
  H  H25  1  0.85002000  0.96566000  0.92392000  1
  H  H26  1  0.95259000  0.99733000  0.84655000  1
  H  H27  1  0.23073000  0.92557000  0.85791000  1
  H  H28  1  0.95090000  0.84835000  0.67150000  1
  H  H29  1  0.38904000  0.91280000  0.87958000  1
  H  H30  1  0.73807000  0.86835000  0.91426000  1
  H  H31  1  0.34273000  0.78199000  0.69368000  1
  H  H32  1  0.53870000  0.57166000  0.70003000  1
  H  H33  1  0.67470000  0.61661000  0.88346000  1
  H  H34  1  0.85314000  0.81484000  0.02194000  1
  H  H35  1  0.65760000  0.45445000  0.87918000  1
  H  H36  1  0.22400000  0.20219000  0.77866000  1
  H  H37  1  0.32155000  0.36032000  0.52364000  1
  H  H38  1  0.08325000  0.54516000  0.52807000  1
  H  H39  1  0.41448000  0.48064000  0.41579000  1
  H  H40  1  0.98722000  0.61666000  0.42251000  1
  H  H41  1  0.20607000  0.73518000  0.36555000  1
  H  H42  1  0.09734000  0.70930000  0.43701000  1
  H  H43  1  0.05474000  0.51862000  0.23190000  1
  H  H44  1  0.26279000  0.49607000  0.84191000  1
  H  H45  1  0.19105000  0.42264000  0.82513000  1
  H  H46  1  0.24556000  0.82118000  0.60928000  1
  H  H47  1  0.35462000  0.89493000  0.48507000  1
  H  H48  1  0.20883000  0.58866000  0.18552000  1
  H  H49  1  0.03608000  0.15058000  0.57447000  1
  H  H50  1  0.00328000  0.04846000  0.65191000  1
  H  H51  1  0.07442000  0.76959000  0.64102000  1
  H  H52  1  0.15035000  0.04951000  0.82856000  1
  H  H53  1  0.08618000  0.61110000  0.62047000  1
  H  H54  1  0.13574000  0.26069000  0.58384000  1
  H  H55  1  0.21775000  0.65815000  0.80586000  1
  H  H56  1  0.42769000  0.46011000  0.80134000  1
  H  H57  1  0.38286000  0.32779000  0.61594000  1
  H  H58  1  0.18776000  0.14627000  0.47731000  1
  H  H59  1  0.54516000  0.34166000  0.62225000  1
  H  H60  1  0.20363000  0.22202000  0.27932000  1
  H  H61  1  0.36068000  0.32242000  0.02417000  1
  H  H62  1  0.54411000  0.08343000  0.02847000  1
  H  H63  1  0.48189000  0.41465000  0.91665000  1
  H  H64  1  0.61259000  0.98843000  0.92448000  1
  H  H65  1  0.73530000  0.20496000  0.86640000  1
  H  H66  1  0.70873000  0.09659000  0.93798000  1
  H  H67  1  0.51675000  0.05620000  0.73251000  1
  H  H68  1  0.49521000  0.26341000  0.34181000  1
  H  H69  1  0.42188000  0.19164000  0.32509000  1
  H  H70  1  0.82135000  0.24576000  0.10876000  1
  H  H71  1  0.89610000  0.35334000  0.98410000  1
  H  H72  1  0.59099000  0.20794000  0.68492000  1
  H  H73  1  0.14999000  0.03434000  0.07608000  1
  H  H74  1  0.04742000  0.00267000  0.15345000  1
  H  H75  1  0.76928000  0.07443000  0.14209000  1
  H  H76  1  0.04910000  0.15165000  0.32849000  1
  H  H77  1  0.61096000  0.08720000  0.12042000  1
  H  H78  1  0.26194000  0.13165000  0.08573000  1
  H  H79  1  0.65728000  0.21801000  0.30632000  1
  H  H80  1  0.46130000  0.42834000  0.29997000  1
  H  H81  1  0.32530000  0.38339000  0.11654000  1
  H  H82  1  0.14686000  0.18516000  0.97806000  1
  H  H83  1  0.34241000  0.54555000  0.12082000  1
  H  H84  1  0.77601000  0.79781000  0.22134000  1
  H  H85  1  0.67845000  0.63968000  0.47636000  1
  H  H86  1  0.91675000  0.45484000  0.47193000  1
  H  H87  1  0.58553000  0.51936000  0.58421000  1
  H  H88  1  0.01278000  0.38334000  0.57749000  1
  H  H89  1  0.79394000  0.26482000  0.63445000  1
  H  H90  1  0.90267000  0.29070000  0.56299000  1
  H  H91  1  0.94526000  0.48138000  0.76810000  1
  H  H92  1  0.73721000  0.50393000  0.15809000  1
  H  H93  1  0.80896000  0.57736000  0.17487000  1
  H  H94  1  0.75445000  0.17882000  0.39071000  1
  H  H95  1  0.64538000  0.10507000  0.51493000  1
  H  H96  1  0.79118000  0.41134000  0.81448000  1
  H  H97  1  0.96392000  0.84942000  0.42553000  1
  H  H98  1  0.99672000  0.95154000  0.34808000  1
  H  H99  1  0.92559000  0.23041000  0.35898000  1
  H  H100  1  0.84965000  0.95049000  0.17144000  1
  H  H101  1  0.91382000  0.38890000  0.37953000  1
  H  H102  1  0.86426000  0.73931000  0.41616000  1
  H  H103  1  0.78225000  0.34185000  0.19413000  1
  H  H104  1  0.57231000  0.53989000  0.19866000  1
  H  H105  1  0.61714000  0.67221000  0.38406000  1
  H  H106  1  0.81225000  0.85373000  0.52268000  1
  H  H107  1  0.45485000  0.65834000  0.37775000  1
  C  C108  1  0.87316000  0.90172000  0.83323000  1
  C  C109  1  0.81880000  0.81354000  0.75300000  1
  C  C110  1  0.35463000  0.87557000  0.15374000  1
  C  C111  1  0.44115000  0.80242000  0.74742000  1
  C  C112  1  0.57058000  0.71039000  0.99834000  1
  C  C113  1  0.47002000  0.84200000  0.99640000  1
  C  C114  1  0.50401000  0.65978000  0.05816000  1
  C  C115  1  0.39332000  0.96176000  0.12902000  1
  C  C116  1  0.31925000  0.84322000  0.10089000  1
  C  C117  1  0.44563000  0.92461000  0.23487000  1
  C  C118  1  0.40375000  0.79230000  0.05850000  1
  C  C119  1  0.96750000  0.86171000  0.92320000  1
  C  C120  1  0.52367000  0.75477000  0.70250000  1
  C  C121  1  0.56751000  0.67095000  0.74938000  1
  C  C122  1  0.10601000  0.76865000  0.92104000  1
  C  C123  1  0.06492000  0.70909000  0.98988000  1
  C  C124  1  0.40515000  0.84069000  0.26090000  1
  C  C125  1  0.90887000  0.94001000  0.88269000  1
  C  C126  1  0.29174000  0.89225000  0.82477000  1
  C  C127  1  0.90377000  0.85212000  0.72629000  1
  C  C128  1  0.37863000  0.88403000  0.83755000  1
  C  C129  1  0.78629000  0.86400000  0.85982000  1
  C  C130  1  0.35299000  0.81243000  0.73492000  1
  C  C131  1  0.56735000  0.58155000  0.74242000  1
  C  C132  1  0.64182000  0.60623000  0.84376000  1
  C  C133  1  0.92655000  0.80167000  0.99291000  1
  C  C134  1  0.63588000  0.51735000  0.83982000  1
  C  C135  1  0.09953000  0.12691000  0.66564000  1
  C  C136  1  0.18819000  0.18022000  0.74621000  1
  C  C137  1  0.12468000  0.64614000  0.34537000  1
  C  C138  1  0.19679000  0.55950000  0.75264000  1
  C  C139  1  0.28908000  0.42917000  0.50109000  1
  C  C140  1  0.15784000  0.53051000  0.50315000  1
  C  C141  1  0.34007000  0.49526000  0.44111000  1
  C  C142  1  0.03739000  0.60952000  0.36952000  1
  C  C143  1  0.15742000  0.68105000  0.39828000  1
  C  C144  1  0.07450000  0.55585000  0.26445000  1
  C  C145  1  0.20791000  0.59632000  0.44087000  1
  C  C146  1  0.13940000  0.03251000  0.57608000  1
  C  C147  1  0.24464000  0.47719000  0.79758000  1
  C  C148  1  0.32847000  0.43340000  0.75075000  1
  C  C149  1  0.23175000  0.89371000  0.57918000  1
  C  C150  1  0.29214000  0.93426000  0.51058000  1
  C  C151  1  0.15960000  0.59417000  0.23903000  1
  C  C152  1  0.06113000  0.09163000  0.61601000  1
  C  C153  1  0.10743000  0.70867000  0.67454000  1
  C  C154  1  0.14789000  0.09623000  0.77331000  1
  C  C155  1  0.11519000  0.62170000  0.66234000  1
  C  C156  1  0.13894000  0.21282000  0.63872000  1
  C  C157  1  0.18720000  0.64766000  0.76472000  1
  C  C158  1  0.41791000  0.43207000  0.75861000  1
  C  C159  1  0.39319000  0.35968000  0.65620000  1
  C  C160  1  0.20023000  0.07294000  0.50661000  1
  C  C161  1  0.48217000  0.36389000  0.66123000  1
  C  C162  1  0.12685000  0.09828000  0.16676000  1
  C  C163  1  0.18121000  0.18646000  0.24700000  1
  C  C164  1  0.64538000  0.12443000  0.84626000  1
  C  C165  1  0.55885000  0.19758000  0.25258000  1
  C  C166  1  0.42942000  0.28961000  0.00166000  1
  C  C167  1  0.52998000  0.15800000  0.00360000  1
  C  C168  1  0.49599000  0.34022000  0.94184000  1
  C  C169  1  0.60669000  0.03824000  0.87098000  1
  C  C170  1  0.68075000  0.15678000  0.89911000  1
  C  C171  1  0.55437000  0.07539000  0.76512000  1
  C  C172  1  0.59626000  0.20770000  0.94150000  1
  C  C173  1  0.03250000  0.13829000  0.07680000  1
  C  C174  1  0.47634000  0.24523000  0.29750000  1
  C  C175  1  0.43249000  0.32905000  0.25062000  1
  C  C176  1  0.89400000  0.23134000  0.07896000  1
  C  C177  1  0.93508000  0.29091000  0.01012000  1
  C  C178  1  0.59486000  0.15931000  0.73910000  1
  C  C179  1  0.09114000  0.05999000  0.11730000  1
  C  C180  1  0.70827000  0.10775000  0.17523000  1
  C  C181  1  0.09623000  0.14788000  0.27371000  1
  C  C182  1  0.62138000  0.11597000  0.16245000  1
  C  C183  1  0.21372000  0.13600000  0.14018000  1
  C  C184  1  0.64701000  0.18757000  0.26508000  1
  C  C185  1  0.43266000  0.41845000  0.25758000  1
  C  C186  1  0.35819000  0.39377000  0.15623000  1
  C  C187  1  0.07346000  0.19833000  0.00708000  1
  C  C188  1  0.36412000  0.48265000  0.16018000  1
  C  C189  1  0.90048000  0.87309000  0.33435000  1
  C  C190  1  0.81181000  0.81978000  0.25379000  1
  C  C191  1  0.87533000  0.35386000  0.65463000  1
  C  C192  1  0.80321000  0.44050000  0.24736000  1
  C  C193  1  0.71092000  0.57083000  0.49891000  1
  C  C194  1  0.84217000  0.46949000  0.49685000  1
  C  C195  1  0.65993000  0.50474000  0.55889000  1
  C  C196  1  0.96261000  0.39048000  0.63048000  1
  C  C197  1  0.84258000  0.31895000  0.60172000  1
  C  C198  1  0.92550000  0.44415000  0.73555000  1
  C  C199  1  0.79210000  0.40368000  0.55912000  1
  C  C200  1  0.86061000  0.96749000  0.42392000  1
  C  C201  1  0.75536000  0.52281000  0.20242000  1
  C  C202  1  0.67153000  0.56660000  0.24925000  1
  C  C203  1  0.76825000  0.10629000  0.42082000  1
  C  C204  1  0.70786000  0.06574000  0.48942000  1
  C  C205  1  0.84040000  0.40583000  0.76097000  1
  C  C206  1  0.93887000  0.90837000  0.38399000  1
  C  C207  1  0.89257000  0.29133000  0.32546000  1
  C  C208  1  0.85211000  0.90377000  0.22669000  1
  C  C209  1  0.88482000  0.37830000  0.33766000  1
  C  C210  1  0.86107000  0.78718000  0.36128000  1
  C  C211  1  0.81280000  0.35234000  0.23528000  1
  C  C212  1  0.58210000  0.56793000  0.24139000  1
  C  C213  1  0.60682000  0.64032000  0.34380000  1
  C  C214  1  0.79977000  0.92706000  0.49339000  1
  C  C215  1  0.51784000  0.63611000  0.33877000  1
  N  N216  1  0.41928000  0.69959000  0.08940000  1
  N  N217  1  0.05935000  0.84684000  0.88609000  1
  N  N218  1  0.55406000  0.80255000  0.96482000  1
  N  N219  1  0.35918000  0.81393000  0.22081000  1
  N  N220  1  0.43965000  0.98805000  0.16832000  1
  N  N221  1  0.75641000  0.82129000  0.81975000  1
  N  N222  1  0.93226000  0.89850000  0.76498000  1
  N  N223  1  0.60718000  0.68417000  0.79965000  1
  N  N224  1  0.45528000  0.83902000  0.79955000  1
  N  N225  1  0.59989000  0.50378000  0.78759000  1
  N  N226  1  0.27682000  0.85636000  0.77298000  1
  N  N227  1  0.97363000  0.72462000  0.02800000  1
  N  N228  1  0.30064000  0.58011000  0.40984000  1
  N  N229  1  0.15347000  0.94080000  0.61351000  1
  N  N230  1  0.19693000  0.44631000  0.53473000  1
  N  N231  1  0.18691000  0.64003000  0.27889000  1
  N  N232  1  0.01030000  0.56378000  0.33021000  1
  N  N233  1  0.18203000  0.24209000  0.67885000  1
  N  N234  1  0.10142000  0.06829000  0.73435000  1
  N  N235  1  0.31509000  0.39490000  0.69983000  1
  N  N236  1  0.16005000  0.54531000  0.70064000  1
  N  N237  1  0.49582000  0.39887000  0.71397000  1
  N  N238  1  0.14357000  0.72365000  0.72619000  1
  N  N239  1  0.27733000  0.02539000  0.47209000  1
  N  N240  1  0.58072000  0.30041000  0.91060000  1
  N  N241  1  0.94065000  0.15316000  0.11391000  1
  N  N242  1  0.44595000  0.19745000  0.03517000  1
  N  N243  1  0.64082000  0.18607000  0.77918000  1
  N  N244  1  0.56036000  0.01195000  0.83168000  1
  N  N245  1  0.24360000  0.17871000  0.18025000  1
  N  N246  1  0.06774000  0.10150000  0.23502000  1
  N  N247  1  0.39283000  0.31583000  0.20034000  1
  N  N248  1  0.54473000  0.16098000  0.20045000  1
  N  N249  1  0.40011000  0.49622000  0.21241000  1
  N  N250  1  0.72319000  0.14364000  0.22702000  1
  N  N251  1  0.02637000  0.27538000  0.97200000  1
  N  N252  1  0.69936000  0.41989000  0.59015000  1
  N  N253  1  0.84653000  0.05920000  0.38649000  1
  N  N254  1  0.80308000  0.55369000  0.46527000  1
  N  N255  1  0.81310000  0.35997000  0.72111000  1
  N  N256  1  0.98970000  0.43622000  0.66979000  1
  N  N257  1  0.81797000  0.75791000  0.32115000  1
  N  N258  1  0.89858000  0.93171000  0.26565000  1
  N  N259  1  0.68492000  0.60510000  0.30017000  1
  N  N260  1  0.83996000  0.45469000  0.29936000  1
  N  N261  1  0.50418000  0.60113000  0.28603000  1
  N  N262  1  0.85644000  0.27635000  0.27381000  1
  N  N263  1  0.72268000  0.97461000  0.52791000  1
