# generated using pymatgen
data_Ba2P8H57C53N5O24
_symmetry_space_group_name_H-M   'P 1'
_cell_length_a   8.25695000
_cell_length_b   12.67592000
_cell_length_c   18.68977000
_cell_angle_alpha   99.56105000
_cell_angle_beta   90.68420000
_cell_angle_gamma   98.82505000
_symmetry_Int_Tables_number   1
_chemical_formula_structural   Ba2P8H57C53N5O24
_chemical_formula_sum   'Ba2 P8 H57 C53 N5 O24'
_cell_volume   1904.73894941
_cell_formula_units_Z   1
loop_
 _symmetry_equiv_pos_site_id
 _symmetry_equiv_pos_as_xyz
  1  'x, y, z'
loop_
 _atom_site_type_symbol
 _atom_site_label
 _atom_site_symmetry_multiplicity
 _atom_site_fract_x
 _atom_site_fract_y
 _atom_site_fract_z
 _atom_site_occupancy
  Ba  Ba0  1  0.85278000  0.54834000  0.46507000  1
  Ba  Ba1  1  0.33706000  0.45175000  0.53494000  1
  P  P2  1  0.04104000  0.39477000  0.33633000  1
  P  P3  1  0.67288000  0.75403000  0.55610000  1
  P  P4  1  0.13067000  0.82322000  0.40305000  1
  P  P5  1  0.14867000  0.60532000  0.66368000  1
  P  P6  1  0.06401000  0.17460000  0.59497000  1
  P  P7  1  0.64389000  0.61390000  0.27486000  1
  P  P8  1  0.52132000  0.23042000  0.43874000  1
  P  P9  1  0.54984000  0.38964000  0.72597000  1
  H  H10  1  0.52049000  0.79146000  0.31387000  1
  H  H11  1  0.39556000  0.93041000  0.63963000  1
  H  H12  1  0.24432000  0.93106000  0.57046000  1
  H  H13  1  0.18338000  0.93881000  0.66258000  1
  H  H14  1  0.83740000  0.18710000  0.38005000  1
  H  H15  1  0.02934000  0.25277000  0.42669000  1
  H  H16  1  0.98192000  0.04679000  0.31210000  1
  H  H17  1  0.01366000  0.05627000  0.40931000  1
  H  H18  1  0.17206000  0.11448000  0.35462000  1
  H  H19  1  0.61526000  0.65080000  0.66949000  1
  H  H20  1  0.73719000  0.94431000  0.33283000  1
  H  H21  1  0.66364000  0.84582000  0.79467000  1
  H  H22  1  0.58335000  0.70606000  0.79873000  1
  H  H23  1  0.47047000  0.78613000  0.75017000  1
  H  H24  1  0.51268000  0.78961000  0.21632000  1
  H  H25  1  0.57322000  0.97695000  0.28046000  1
  H  H26  1  0.34410000  0.30286000  0.33769000  1
  H  H27  1  0.55768000  0.35070000  0.32374000  1
  H  H28  1  0.33027000  0.17059000  0.22162000  1
  H  H29  1  0.38345000  0.30917000  0.20891000  1
  H  H30  1  0.75463000  0.94210000  0.23559000  1
  H  H31  1  0.25944000  0.86361000  0.16287000  1
  H  H32  1  0.19879000  0.30512000  0.72735000  1
  H  H33  1  0.98190000  0.29088000  0.72178000  1
  H  H34  1  0.08812000  0.30391000  0.84872000  1
  H  H35  1  0.95653000  0.17667000  0.81740000  1
  H  H36  1  0.17670000  0.18343000  0.82267000  1
  H  H37  1  0.45696000  0.15228000  0.66501000  1
  H  H38  1  0.52660000  0.01294000  0.74420000  1
  H  H39  1  0.33599000  0.06295000  0.76219000  1
  H  H40  1  0.23437000  0.75328000  0.26656000  1
  H  H41  1  0.51376000  0.11486000  0.82191000  1
  H  H42  1  0.82530000  0.48323000  0.65601000  1
  H  H43  1  0.59092000  0.36562000  0.86948000  1
  H  H44  1  0.88874000  0.33811000  0.19916000  1
  H  H45  1  0.28586000  0.67842000  0.80505000  1
  H  H46  1  0.61337000  0.61337000  0.12935000  1
  H  H47  1  0.36498000  0.52108000  0.34525000  1
  H  H48  1  0.68797000  0.36167000  0.98635000  1
  H  H49  1  0.79134000  0.33411000  0.08067000  1
  H  H50  1  0.37774000  0.68849000  0.92739000  1
  H  H51  1  0.30224000  0.89883000  0.29140000  1
  H  H52  1  0.33446000  0.03145000  0.41790000  1
  H  H53  1  0.86953000  0.95804000  0.57637000  1
  H  H54  1  0.81769000  0.26544000  0.52516000  1
  H  H55  1  0.38582000  0.71888000  0.45905000  1
  H  H56  1  0.09270000  0.92894000  0.20003000  1
  H  H57  1  0.33547000  0.74582000  0.58735000  1
  H  H58  1  0.12218000  0.75391000  0.57270000  1
  H  H59  1  0.90677000  0.80382000  0.73651000  1
  H  H60  1  0.89955000  0.71052000  0.66216000  1
  H  H61  1  0.55436000  0.20444000  0.14133000  1
  H  H62  1  0.60437000  0.14666000  0.21110000  1
  H  H63  1  0.72518000  0.23152000  0.66863000  1
  H  H64  1  0.73453000  0.11515000  0.69588000  1
  H  H65  1  0.53022000  0.55444000  0.94243000  1
  H  H66  1  0.59219000  0.68266000  0.99282000  1
  C  C67  1  0.66984000  0.92490000  0.27937000  1
  C  C68  1  0.59391000  0.80616000  0.26599000  1
  C  C69  1  0.45857000  0.27939000  0.31404000  1
  C  C70  1  0.42740000  0.24324000  0.23229000  1
  C  C71  1  0.08518000  0.24904000  0.73259000  1
  C  C72  1  0.07594000  0.22667000  0.81005000  1
  C  C73  1  0.52046000  0.17600000  0.71952000  1
  C  C74  1  0.47115000  0.08610000  0.76436000  1
  C  C75  1  0.99946000  0.44280000  0.04753000  1
  C  C76  1  0.90808000  0.38415000  0.09574000  1
  C  C77  1  0.77563000  0.39882000  0.95225000  1
  C  C78  1  0.19720000  0.83492000  0.27086000  1
  C  C79  1  0.93735000  0.44587000  0.97647000  1
  C  C80  1  0.71684000  0.40108000  0.88274000  1
  C  C81  1  0.81619000  0.44914000  0.83313000  1
  C  C82  1  0.97611000  0.50203000  0.85660000  1
  C  C83  1  0.03668000  0.50147000  0.92875000  1
  C  C84  1  0.76064000  0.44659000  0.76084000  1
  C  C85  1  0.86728000  0.48932000  0.71184000  1
  C  C86  1  0.02287000  0.54578000  0.73412000  1
  C  C87  1  0.07479000  0.55691000  0.80829000  1
  C  C88  1  0.15999000  0.49659000  0.07077000  1
  C  C89  1  0.14828000  0.85378000  0.19551000  1
  C  C90  1  0.21774000  0.49795000  0.14361000  1
  C  C91  1  0.11521000  0.44745000  0.19299000  1
  C  C92  1  0.96520000  0.38593000  0.16617000  1
  C  C93  1  0.21826000  0.62467000  0.83678000  1
  C  C94  1  0.27431000  0.62763000  0.90783000  1
  C  C95  1  0.19537000  0.55742000  0.95249000  1
  C  C96  1  0.26356000  0.54775000  0.02170000  1
  C  C97  1  0.43277000  0.58241000  0.04373000  1
  C  C98  1  0.37928000  0.54744000  0.16658000  1
  C  C99  1  0.48513000  0.58485000  0.11528000  1
  C  C100  1  0.22924000  0.78020000  0.61102000  1
  C  C101  1  0.43276000  0.55405000  0.23966000  1
  C  C102  1  0.32390000  0.51395000  0.28922000  1
  C  C103  1  0.16738000  0.45810000  0.26714000  1
  C  C104  1  0.77004000  0.18014000  0.52125000  1
  C  C105  1  0.43695000  0.80361000  0.46308000  1
  C  C106  1  0.40856000  0.98158000  0.44044000  1
  C  C107  1  0.34552000  0.87256000  0.43511000  1
  C  C108  1  0.58440000  0.84483000  0.50315000  1
  C  C109  1  0.64874000  0.95741000  0.51000000  1
  C  C110  1  0.55967000  0.02570000  0.47704000  1
  C  C111  1  0.26547000  0.90287000  0.62208000  1
  C  C112  1  0.62113000  0.13748000  0.48385000  1
  C  C113  1  0.86188000  0.11401000  0.55112000  1
  C  C114  1  0.79864000  0.00446000  0.54852000  1
  C  C115  1  0.97163000  0.20454000  0.37522000  1
  C  C116  1  0.03851000  0.09854000  0.36239000  1
  C  C117  1  0.67889000  0.73256000  0.69433000  1
  C  C118  1  0.59378000  0.76956000  0.76387000  1
  C  C119  1  0.03189000  0.76211000  0.15725000  1
  N  N120  1  0.84769000  0.72688000  0.71230000  1
  N  N121  1  0.57793000  0.21912000  0.19749000  1
  N  N122  1  0.69819000  0.19070000  0.71218000  1
  N  N123  1  0.56119000  0.59991000  0.99394000  1
  N  N124  1  0.94047000  0.68994000  0.12664000  1
  O  O125  1  0.87309000  0.42589000  0.32514000  1
  O  O126  1  0.67642000  0.80971000  0.64892000  1
  O  O127  1  0.06671000  0.84430000  0.31760000  1
  O  O128  1  0.31661000  0.57414000  0.67490000  1
  O  O129  1  0.06729000  0.56572000  0.58563000  1
  O  O130  1  0.53021000  0.37299000  0.63120000  1
  O  O131  1  0.19724000  0.74688000  0.67790000  1
  O  O132  1  0.61134000  0.36629000  0.46363000  1
  O  O133  1  0.10855000  0.31414000  0.59520000  1
  O  O134  1  0.20347000  0.12256000  0.55582000  1
  O  O135  1  0.08175000  0.15088000  0.68429000  1
  O  O136  1  0.12242000  0.43437000  0.41438000  1
  O  O137  1  0.57837000  0.63380000  0.53638000  1
  O  O138  1  0.34151000  0.23185000  0.46551000  1
  O  O139  1  0.50337000  0.19337000  0.34423000  1
  O  O140  1  0.43579000  0.47009000  0.75749000  1
  O  O141  1  0.46769000  0.26997000  0.75722000  1
  O  O142  1  0.65950000  0.62710000  0.36881000  1
  O  O143  1  0.77130000  0.54312000  0.24367000  1
  O  O144  1  0.00279000  0.25347000  0.31405000  1
  O  O145  1  0.71893000  0.74221000  0.25547000  1
  O  O146  1  0.84820000  0.76819000  0.53453000  1
  O  O147  1  0.08116000  0.68595000  0.40481000  1
  O  O148  1  0.01518000  0.87911000  0.45565000  1
