# generated using pymatgen
data_H5C8(N2O)2
_symmetry_space_group_name_H-M   'P 1'
_cell_length_a   9.92780000
_cell_length_b   61.12370000
_cell_length_c   61.12370000
_cell_angle_alpha   120.00000000
_cell_angle_beta   90.00000000
_cell_angle_gamma   90.00000000
_symmetry_Int_Tables_number   1
_chemical_formula_structural   H5C8(N2O)2
_chemical_formula_sum   'H90 C144 N72 O36'
_cell_volume   32122.02547779
_cell_formula_units_Z   18
loop_
 _symmetry_equiv_pos_site_id
 _symmetry_equiv_pos_as_xyz
  1  'x, y, z'
loop_
 _atom_site_type_symbol
 _atom_site_label
 _atom_site_symmetry_multiplicity
 _atom_site_fract_x
 _atom_site_fract_y
 _atom_site_fract_z
 _atom_site_occupancy
  C  1  1  0.98882200  0.92738200  0.46915500  1
  C  2  1  0.10362400  0.94322800  0.47875900  1
  C  3  1  0.08803000  0.96976400  0.49031300  1
  C  4  1  0.96043900  0.98106300  0.49290900  1
  C  5  1  0.84507500  0.96522700  0.48294800  1
  C  6  1  0.86160300  0.93865700  0.47118100  1
  C  15  1  0.99729000  0.90159000  0.46049600  1
  C  49  1  0.96336500  0.85966800  0.42705200  1
  C  64  1  0.96130500  0.82025300  0.38892700  1
  C  66  1  0.96530800  0.82144000  0.42818400  1
  C  69  1  0.97230300  0.78547500  0.32140900  1
  C  70  1  0.09875700  0.77738400  0.30941100  1
  C  74  1  0.96642000  0.80733600  0.34475100  1
  C  75  1  0.98728700  0.78020100  0.46820900  1
  C  76  1  0.04513600  0.77485400  0.44488900  1
  C  80  1  0.06294500  0.79408700  0.43928200  1
  C  118  1  0.96289600  0.55831800  0.13303600  1
  C  120  1  0.96037800  0.55962500  0.17245700  1
  C  122  1  0.96400900  0.59768100  0.17125600  1
  C  127  1  0.96349000  0.56566700  0.43451500  1
  C  129  1  0.96153600  0.60382600  0.43329300  1
  C  131  1  0.96589100  0.56460300  0.39518700  1
  C  136  1  0.96466800  0.42472400  0.86324200  1
  C  138  1  0.95303900  0.42530100  0.82477800  1
  C  140  1  0.95898700  0.38634800  0.82419500  1
  C  145  1  0.96449800  0.42938500  0.56802200  1
  C  147  1  0.95290400  0.39034600  0.56744700  1
  C  149  1  0.95885700  0.42871800  0.60640000  1
  C  154  1  0.98873600  0.53269900  0.06533100  1
  C  155  1  0.10359700  0.52647000  0.04949900  1
  C  156  1  0.08811000  0.51147900  0.02296000  1
  C  157  1  0.96056800  0.50275400  0.01164900  1
  C  158  1  0.84514600  0.50861400  0.02746800  1
  C  159  1  0.86157400  0.52342500  0.05403900  1
  C  161  1  0.95134100  0.49057700  0.98470800  1
  C  162  1  0.98926800  0.46509000  0.96862700  1
  C  163  1  0.97551600  0.45425100  0.94209900  1
  C  164  1  0.92758000  0.46822300  0.93086500  1
  C  165  1  0.89451800  0.49425700  0.94716800  1
  C  166  1  0.90535000  0.50471800  0.97368800  1
  C  182  1  0.90844700  0.45620100  0.90460400  1
  C  183  1  0.99706800  0.54983800  0.09112000  1
  C  186  1  0.98876100  0.52352100  0.46007100  1
  C  187  1  0.10357200  0.51393300  0.46633100  1
  C  188  1  0.08796900  0.50238200  0.48131400  1
  C  189  1  0.96036200  0.49977600  0.49000500  1
  C  190  1  0.84498900  0.50972200  0.48411500  1
  C  191  1  0.86152900  0.52148600  0.46931000  1
  C  193  1  0.95106500  0.48501400  0.50218500  1
  C  194  1  0.98899400  0.49441700  0.52767100  1
  C  195  1  0.97524400  0.47872800  0.53850900  1
  C  196  1  0.92731900  0.45352000  0.52453300  1
  C  197  1  0.89425900  0.44379200  0.49850100  1
  C  198  1  0.90507900  0.45985300  0.48804100  1
  C  214  1  0.90820700  0.43927800  0.53655200  1
  C  215  1  0.99726500  0.53219200  0.44295000  1
  C  218  1  0.85835600  0.76966200  0.31065500  1
  C  219  1  0.87432100  0.74605400  0.28827700  1
  C  220  1  0.00136500  0.73770600  0.27659100  1
  C  221  1  0.11575500  0.75365600  0.28719400  1
  C  222  1  0.01281600  0.71229700  0.25636200  1
  C  223  1  0.96921100  0.70456800  0.23147800  1
  C  224  1  0.98645400  0.67902800  0.21230600  1
  C  225  1  0.04464600  0.66095500  0.21746900  1
  C  226  1  0.08437300  0.66856900  0.24273900  1
  C  227  1  0.06871700  0.69419600  0.26162000  1
  C  241  1  0.06267700  0.63619400  0.19808600  1
  C  243  1  0.97236500  0.52684100  0.20718700  1
  C  244  1  0.85862300  0.53207400  0.22308400  1
  C  245  1  0.87464700  0.53332100  0.24669800  1
  C  246  1  0.00156600  0.52982400  0.25496600  1
  C  247  1  0.11572000  0.52428600  0.23892900  1
  C  248  1  0.09864600  0.52274800  0.21519000  1
  C  250  1  0.01337600  0.53517900  0.28042500  1
  C  251  1  0.96997600  0.51817300  0.28835600  1
  C  252  1  0.98732200  0.52476500  0.31395800  1
  C  253  1  0.04533200  0.54808300  0.33190200  1
  C  254  1  0.08478800  0.56558900  0.32406900  1
  C  255  1  0.06918900  0.55860800  0.29838000  1
  C  271  1  0.06310000  0.55374400  0.35675800  1
  C  272  1  0.96660800  0.52834900  0.18533800  1
  C  275  1  0.97222300  0.67134200  0.46608900  1
  C  276  1  0.85838200  0.68207300  0.46097000  1
  C  277  1  0.87447200  0.70442500  0.45969700  1
  C  278  1  0.00154600  0.71610300  0.46304600  1
  C  279  1  0.11582500  0.70552700  0.46845600  1
  C  280  1  0.09869600  0.68334000  0.47001900  1
  C  282  1  0.01325100  0.73622700  0.45771600  1
  C  283  1  0.96998800  0.76116300  0.47476300  1
  C  284  1  0.08444900  0.74952200  0.42734000  1
  C  285  1  0.06885800  0.73078300  0.43428000  1
  C  298  1  0.96630100  0.64799500  0.46459500  1
  C  300  1  0.04116300  0.32379200  0.77601100  1
  C  301  1  0.08284300  0.31668800  0.75096100  1
  C  306  1  0.05784700  0.34841200  0.79578000  1
  C  308  1  0.96996200  0.46010300  0.79211600  1
  C  309  1  0.85649700  0.45492100  0.77615300  1
  C  310  1  0.87209900  0.45453600  0.75294100  1
  C  311  1  0.99835300  0.45886500  0.74512000  1
  C  312  1  0.11214300  0.46441900  0.76123800  1
  C  313  1  0.09543800  0.46509200  0.78458400  1
  C  315  1  0.01011700  0.45436300  0.71995100  1
  C  316  1  0.96461700  0.47180100  0.71273600  1
  C  317  1  0.98154500  0.46603500  0.68737000  1
  C  318  1  0.04115100  0.44311500  0.66895600  1
  C  319  1  0.08287200  0.42516800  0.67605800  1
  C  320  1  0.06770400  0.43133600  0.70153100  1
  C  336  1  0.05779700  0.43826500  0.64433600  1
  C  337  1  0.96511300  0.45773200  0.81350800  1
  C  340  1  0.96985600  0.32288200  0.53264200  1
  C  341  1  0.85640200  0.31209800  0.53782100  1
  C  342  1  0.09532300  0.31035600  0.52764300  1
  C  347  1  0.96501000  0.34664700  0.53501900  1
  C  811  1  0.96452300  0.12947400  0.56331600  1
  C  813  1  0.95309900  0.16794600  0.60235100  1
  C  815  1  0.95897300  0.16851400  0.56397100  1
  C  820  1  0.95113500  0.00800400  0.50767600  1
  C  821  1  0.98909400  0.02409400  0.49828400  1
  C  822  1  0.97533600  0.05062000  0.51398000  1
  C  823  1  0.92737800  0.06184700  0.53918400  1
  C  824  1  0.89427100  0.04553500  0.54890200  1
  C  825  1  0.90510900  0.01901500  0.53283500  1
  C  834  1  0.90828100  0.08810900  0.55343300  1
  C  836  1  0.96994500  0.20063400  0.66984000  1
  C  837  1  0.85650700  0.21660900  0.68059800  1
  C  838  1  0.87208000  0.23982000  0.70342900  1
  C  839  1  0.99829300  0.24762800  0.71560300  1
  C  840  1  0.11205400  0.23149900  0.70505600  1
  C  841  1  0.09537300  0.20815300  0.68237900  1
  C  843  1  0.01006900  0.27279700  0.73626600  1
  C  844  1  0.96462700  0.28001300  0.76092200  1
  C  845  1  0.98158000  0.30537800  0.78052200  1
  C  846  1  0.06764400  0.29121500  0.73165600  1
  C  858  1  0.96519200  0.17925700  0.64607000  1
  C  860  1  0.87199800  0.28926600  0.53819700  1
  C  861  1  0.99824700  0.27711000  0.53385700  1
  C  862  1  0.11202800  0.28767800  0.52830500  1
  C  863  1  0.01001600  0.25643400  0.53834500  1
  C  864  1  0.96444600  0.23178700  0.52090700  1
  C  865  1  0.98141800  0.21217600  0.52665400  1
  C  866  1  0.04113800  0.21666400  0.54955900  1
  C  867  1  0.08293200  0.24170900  0.56751000  1
  C  868  1  0.06770500  0.26102600  0.56136000  1
  C  881  1  0.05784700  0.19688600  0.55439400  1
  H  7  1  0.77802100  0.92730700  0.46470500  1
  H  8  1  0.17133200  0.98101100  0.49777600  1
  H  10  1  0.64136000  0.96358600  0.47742900  1
  H  11  1  0.70283700  0.99267000  0.49179100  1
  H  16  1  0.03472500  0.89624400  0.47221000  1
  H  61  1  0.97786900  0.82417000  0.34620600  1
  H  71  1  0.18157000  0.78862500  0.31750100  1
  H  77  1  0.95786300  0.79828400  0.48086500  1
  H  81  1  0.14948900  0.79440600  0.43115300  1
  H  160  1  0.77795200  0.52829000  0.06537800  1
  H  167  1  0.99992333  0.43556900  0.93089400  1
  H  168  1  0.88077300  0.52334200  0.98537000  1
  H  169  1  0.17144100  0.50770400  0.01172300  1
  H  172  1  0.64144100  0.50470700  0.02908500  1
  H  173  1  0.70302100  0.48998700  0.00000800  1
  H  175  1  0.83461800  0.52778000  0.95032100  1
  H  176  1  0.85326400  0.50486500  0.92086800  1
  H  184  1  0.03441800  0.56690400  0.09646800  1
  H  185  1  0.83691500  0.46281500  0.89806300  1
  H  192  1  0.77795000  0.52795300  0.46442800  1
  H  199  1  0.99961200  0.48620300  0.55719000  1
  H  200  1  0.88051200  0.45291000  0.46941600  1
  H  201  1  0.17127600  0.49493000  0.48511000  1
  H  204  1  0.64125400  0.51522200  0.48797300  1
  H  205  1  0.70273200  0.50087200  0.50270600  1
  H  207  1  0.83434200  0.41342300  0.46497600  1
  H  208  1  0.85299100  0.40688200  0.48789000  1
  H  216  1  0.03494200  0.52050300  0.42590500  1
  H  217  1  0.83664900  0.42612700  0.52994400  1
  H  228  1  0.95681600  0.67371600  0.19426100  1
  H  229  1  0.09772100  0.69980200  0.27978400  1
  H  230  1  0.79231300  0.73439300  0.28107000  1
  H  233  1  0.31797500  0.75814300  0.28440500  1
  H  234  1  0.25748800  0.73117600  0.26133500  1
  H  236  1  0.15957600  0.65815800  0.26740500  1
  H  237  1  0.14279000  0.63435000  0.23827000  1
  H  242  1  0.14990800  0.62783100  0.19752300  1
  H  249  1  0.18134300  0.51947700  0.20389400  1
  H  256  1  0.95778300  0.51213900  0.31941700  1
  H  257  1  0.09796200  0.57106200  0.29262300  1
  H  258  1  0.79285400  0.53793000  0.25843100  1
  H  261  1  0.31767800  0.51675700  0.23433200  1
  H  262  1  0.25733700  0.52080700  0.26136700  1
  H  264  1  0.15928600  0.60063600  0.33415300  1
  H  265  1  0.14247300  0.59562900  0.35816100  1
  H  273  1  0.97945000  0.51302000  0.16851200  1
  H  274  1  0.14940400  0.56196000  0.36525700  1
  H  281  1  0.18144500  0.67526000  0.47320000  1
  H  286  1  0.09753900  0.71257500  0.42179600  1
  H  287  1  0.79257100  0.71160400  0.45518000  1
  H  290  1  0.31800900  0.70832000  0.47576400  1
  H  291  1  0.25766400  0.73134800  0.47178500  1
  H  293  1  0.15876000  0.72460500  0.39226300  1
  H  294  1  0.14205500  0.75365000  0.39734300  1
  H  299  1  0.97755100  0.64653000  0.47997200  1
  H  302  1  0.95040600  0.31031200  0.79839100  1
  H  304  1  0.16046200  0.32778100  0.72698200  1
  H  305  1  0.14205900  0.35119500  0.75626800  1
  H  307  1  0.14418600  0.35714000  0.79660000  1
  H  314  1  0.17803000  0.46834300  0.79589800  1
  H  321  1  0.95033400  0.47897000  0.68243600  1
  H  322  1  0.09798200  0.41855700  0.70676500  1
  H  323  1  0.79058200  0.44995200  0.74114900  1
  H  326  1  0.31319600  0.47273800  0.76630300  1
  H  327  1  0.25269800  0.46927900  0.73950600  1
  H  329  1  0.16058000  0.39010400  0.66496300  1
  H  330  1  0.14214000  0.39597800  0.64155000  1
  H  338  1  0.98865200  0.47223600  0.83035800  1
  H  339  1  0.14416500  0.43037300  0.63561100  1
  H  343  1  0.17791400  0.31841800  0.52438900  1
  H  348  1  0.98855100  0.34899400  0.52051200  1
  H  826  1  0.99973400  0.06183000  0.50651000  1
  H  827  1  0.88052100  0.00732800  0.53977100  1
  H  830  1  0.83431700  0.04236500  0.57926000  1
  H  831  1  0.85298100  0.07182300  0.58581500  1
  H  835  1  0.83678500  0.09465300  0.56659700  1
  H  842  1  0.17795400  0.19683100  0.67432900  1
  H  847  1  0.09789000  0.28597900  0.71364000  1
  H  848  1  0.79059800  0.25162300  0.71062200  1
  H  851  1  0.31305500  0.22641500  0.70833900  1
  H  852  1  0.25254900  0.25322000  0.73166600  1
  H  859  1  0.98700000  0.16235500  0.64376900  1
  H  869  1  0.95015400  0.19431200  0.51371900  1
  H  870  1  0.09803200  0.27903400  0.57414100  1
  H  871  1  0.79049100  0.28205500  0.54278000  1
  H  874  1  0.31306600  0.28441800  0.51997000  1
  H  875  1  0.25256800  0.26107400  0.52342000  1
  H  877  1  0.16076500  0.26566100  0.60256900  1
  H  878  1  0.14232400  0.23637000  0.59668200  1
  H  882  1  0.14426800  0.19604300  0.56226600  1
  N  9  1  0.71903000  0.97467400  0.48449600  1
  N  12  1  0.23199400  0.93230200  0.47696700  1
  N  50  1  0.96136900  0.84597500  0.40129300  1
  N  51  1  0.96408300  0.84714300  0.44038700  1
  N  52  1  0.96168700  0.88476900  0.43801100  1
  N  65  1  0.96297700  0.80849100  0.40262700  1
  N  67  1  0.96302600  0.80745600  0.43915300  1
  N  68  1  0.96076000  0.80481300  0.36431000  1
  N  72  1  0.73153600  0.77742800  0.32278900  1
  N  119  1  0.96083000  0.54626100  0.14673500  1
  N  121  1  0.96168600  0.58509000  0.18421900  1
  N  123  1  0.96330400  0.58417700  0.14555200  1
  N  124  1  0.96143400  0.54417200  0.10793800  1
  N  125  1  0.96175300  0.62262700  0.18523100  1
  N  126  1  0.95984400  0.55043300  0.18788400  1
  N  128  1  0.96143500  0.59142700  0.44661600  1
  N  130  1  0.96343800  0.59016000  0.40783200  1
  N  132  1  0.96438700  0.55236400  0.40865300  1
  N  133  1  0.96164600  0.55468000  0.44862900  1
  N  134  1  0.96355000  0.55366900  0.37023200  1
  N  135  1  0.96091100  0.62844700  0.44250300  1
  N  137  1  0.95997300  0.43775900  0.85045800  1
  N  139  1  0.95241500  0.39981100  0.81213800  1
  N  141  1  0.96535300  0.39893500  0.84989100  1
  N  142  1  0.97513400  0.43669800  0.88831700  1
  N  143  1  0.95749500  0.36149100  0.80938100  1
  N  144  1  0.95119700  0.43541700  0.81015000  1
  N  146  1  0.95981400  0.40356800  0.55498800  1
  N  148  1  0.95229800  0.40319600  0.59293500  1
  N  150  1  0.96520200  0.44182400  0.59381000  1
  N  151  1  0.97494300  0.44248800  0.55604800  1
  N  152  1  0.95738600  0.43876200  0.63125600  1
  N  153  1  0.95107400  0.36560200  0.55733300  1
  N  170  1  0.03792800  0.45091900  0.97951900  1
  N  171  1  0.71914600  0.50069600  0.01800500  1
  N  174  1  0.85450300  0.51005300  0.93867200  1
  N  177  1  0.23190900  0.53562700  0.06044200  1
  N  202  1  0.03764800  0.51948200  0.54184500  1
  N  203  1  0.71893500  0.50816300  0.49200200  1
  N  206  1  0.85423600  0.41950000  0.48270400  1
  N  209  1  0.23196100  0.51574000  0.45721300  1
  N  231  1  0.91149300  0.72267500  0.22631100  1
  N  232  1  0.24118100  0.74690200  0.27695500  1
  N  235  1  0.13507400  0.65237000  0.24991900  1
  N  259  1  0.91223900  0.49484000  0.27039200  1
  N  260  1  0.24102400  0.52067100  0.24562500  1
  N  263  1  0.13505100  0.58905700  0.34010500  1
  N  266  1  0.73197900  0.53661300  0.21540200  1
  N  288  1  0.91246300  0.76650600  0.49810500  1
  N  289  1  0.24128100  0.71575200  0.47193300  1
  N  292  1  0.13459600  0.74213000  0.40387400  1
  N  295  1  0.73157000  0.66993100  0.45656800  1
  N  303  1  0.13475300  0.33323600  0.74434200  1
  N  324  1  0.90514000  0.49472600  0.73115500  1
  N  325  1  0.23676800  0.46883200  0.75496200  1
  N  328  1  0.13482900  0.40200800  0.65950800  1
  N  331  1  0.73048800  0.44960600  0.78337000  1
  N  344  1  0.73039700  0.32463400  0.54314900  1
  N  812  1  0.96000400  0.14226400  0.58913500  1
  N  814  1  0.95255600  0.18057700  0.58949400  1
  N  816  1  0.96517600  0.14281600  0.55087000  1
  N  817  1  0.97494400  0.10439600  0.55021500  1
  N  818  1  0.95743100  0.18332400  0.55392600  1
  N  819  1  0.95178600  0.18259400  0.62709300  1
  N  828  1  0.03778800  0.01321100  0.47322300  1
  N  829  1  0.85423000  0.05402100  0.57319100  1
  N  849  1  0.90516400  0.26159400  0.76543200  1
  N  850  1  0.23664300  0.23776300  0.71576300  1
  N  853  1  0.73057000  0.20941000  0.66803700  1
  N  872  1  0.90485800  0.22729700  0.49799300  1
  N  873  1  0.23664400  0.27698300  0.52387800  1
  N  876  1  0.13497900  0.24830500  0.59065900  1
  O  13  1  0.28237800  0.93974400  0.49841300  1
  O  14  1  0.31227900  0.93742800  0.46426400  1
  O  73  1  0.64571100  0.77914900  0.30861300  1
  O  78  1  0.79380400  0.77445800  0.50015800  1
  O  79  1  0.98034200  0.78266600  0.51643200  1
  O  178  1  0.15605200  0.44332400  0.97236600  1
  O  179  1  0.28226100  0.54963500  0.05300000  1
  O  180  1  0.96424000  0.43214800  0.97400200  1
  O  181  1  0.31226900  0.51781300  0.05533200  1
  O  210  1  0.15577400  0.51992200  0.54944000  1
  O  211  1  0.28243300  0.49429900  0.44321700  1
  O  212  1  0.96395900  0.53273200  0.56061400  1
  O  213  1  0.31217300  0.52845500  0.47505100  1
  O  238  1  0.79276900  0.71681300  0.21838400  1
  O  239  1  0.97915300  0.72497900  0.21021100  1
  O  240  1  0.68809200  0.76233500  0.32946400  1
  O  267  1  0.79355400  0.49283800  0.27631800  1
  O  268  1  0.64549600  0.52085200  0.21376800  1
  O  269  1  0.97994700  0.47650300  0.26824400  1
  O  270  1  0.68944300  0.55845100  0.23050400  1
  O  296  1  0.64558500  0.68411600  0.47241600  1
  O  297  1  0.68840500  0.66321700  0.43477300  1
  O  332  1  0.78601300  0.49660100  0.72534100  1
  O  333  1  0.64233000  0.46526800  0.78540000  1
  O  334  1  0.97097000  0.51349800  0.73392100  1
  O  335  1  0.69007600  0.42776900  0.76773900  1
  O  345  1  0.64222100  0.31100800  0.52748800  1
  O  346  1  0.69001500  0.33083200  0.56498500  1
  O  832  1  0.15591900  0.02036800  0.47279000  1
  O  833  1  0.96412600  0.01873500  0.45997100  1
  O  854  1  0.78604900  0.26741100  0.77312800  1
  O  855  1  0.64225000  0.20739100  0.68164900  1
  O  856  1  0.97102400  0.25882800  0.78143400  1
  O  857  1  0.69037800  0.22504700  0.66182500  1
  O  879  1  0.78572700  0.21961500  0.49613300  1
  O  880  1  0.97060600  0.21129200  0.47920700  1
