# generated using pymatgen
data_Eu4Co3H12C48(NO6)6
_symmetry_space_group_name_H-M   'P 1'
_cell_length_a   14.56500000
_cell_length_b   14.56500000
_cell_length_c   18.04500000
_cell_angle_alpha   69.83470000
_cell_angle_beta   69.83470000
_cell_angle_gamma   87.86640000
_symmetry_Int_Tables_number   1
_chemical_formula_structural   Eu4Co3H12C48(NO6)6
_chemical_formula_sum   'Eu8 Co6 H24 C96 N12 O72'
_cell_volume   3358.63414052
_cell_formula_units_Z   2
loop_
 _symmetry_equiv_pos_site_id
 _symmetry_equiv_pos_as_xyz
  1  'x, y, z'
loop_
 _atom_site_type_symbol
 _atom_site_label
 _atom_site_symmetry_multiplicity
 _atom_site_fract_x
 _atom_site_fract_y
 _atom_site_fract_z
 _atom_site_occupancy
  Eu  Eu1  1  0.40698000  0.05624000  0.23300000  1.0
  Eu  Eu2  1  0.94376000  0.59302000  0.26700000  1.0
  Eu  Eu3  1  0.59302000  0.94376000  0.76700000  1.0
  Eu  Eu4  1  0.05624000  0.40698000  0.73300000  1.0
  Eu  Eu5  1  0.02444000  0.97556000  0.25000000  1.0
  Eu  Eu6  1  0.97556000  0.02444000  0.75000000  1.0
  Eu  Eu7  1  0.31333000  0.68667000  0.75000000  1.0
  Eu  Eu8  1  0.68667000  0.31333000  0.25000000  1.0
  Co  Co1  1  0.70979000  0.00445000  0.24399000  1.0
  Co  Co2  1  0.99555000  0.29021000  0.25601000  1.0
  Co  Co3  1  0.29021000  0.99555000  0.75601000  1.0
  Co  Co4  1  0.00445000  0.70979000  0.74399000  1.0
  Co  Co5  1  0.66620000  0.33380000  0.75000000  1.0
  Co  Co6  1  0.33380000  0.66620000  0.25000000  1.0
  H  H1  1  0.45270000  0.86230000  0.52420000  1.0
  H  H2  1  0.72540000  0.89420000  0.53110000  1.0
  H  H3  1  0.09020000  0.74560000  0.02520000  1.0
  H  H4  1  0.09480000  0.02100000  0.02970000  1.0
  H  H5  1  0.40490000  0.14070000  0.97880000  1.0
  H  H6  1  0.28750000  0.86190000  0.06840000  1.0
  H  H7  1  0.13770000  0.54730000  0.97580000  1.0
  H  H8  1  0.10580000  0.27460000  0.96890000  1.0
  H  H9  1  0.25440000  0.90980000  0.47480000  1.0
  H  H10  1  0.97900000  0.90520000  0.47030000  1.0
  H  H11  1  0.85930000  0.59510000  0.52120000  1.0
  H  H12  1  0.13810000  0.71250000  0.43160000  1.0
  H  H13  1  0.54730000  0.13770000  0.47580000  1.0
  H  H14  1  0.27460000  0.10580000  0.46890000  1.0
  H  H15  1  0.90980000  0.25440000  0.97480000  1.0
  H  H16  1  0.90520000  0.97900000  0.97030000  1.0
  H  H17  1  0.59510000  0.85930000  0.02120000  1.0
  H  H18  1  0.71250000  0.13810000  0.93160000  1.0
  H  H19  1  0.86230000  0.45270000  0.02420000  1.0
  H  H20  1  0.89420000  0.72540000  0.03110000  1.0
  H  H21  1  0.74560000  0.09020000  0.52520000  1.0
  H  H22  1  0.02100000  0.09480000  0.52970000  1.0
  H  H23  1  0.14070000  0.40490000  0.47880000  1.0
  H  H24  1  0.86190000  0.28750000  0.56840000  1.0
  C  C1  1  0.56120000  0.92300000  0.41060000  1.0
  C  C2  1  0.51950000  0.88230000  0.49740000  1.0
  C  C3  1  0.58190000  0.87190000  0.54410000  1.0
  C  C4  1  0.68280000  0.89920000  0.50180000  1.0
  C  C5  1  0.71670000  0.93410000  0.41360000  1.0
  C  C6  1  0.50420000  0.94880000  0.34900000  1.0
  C  C7  1  0.53860000  0.83440000  0.63970000  1.0
  C  C8  1  0.82370000  0.95990000  0.35780000  1.0
  C  C9  1  0.17210000  0.84950000  0.91670000  1.0
  C  C10  1  0.11170000  0.81210000  0.99900000  1.0
  C  C11  1  0.08280000  0.87760000  0.04300000  1.0
  C  C12  1  0.11480000  0.97660000  0.00190000  1.0
  C  C13  1  0.17750000  0.00770000  0.91850000  1.0
  C  C14  1  0.21160000  0.79300000  0.85830000  1.0
  C  C15  1  0.02140000  0.83860000  0.13550000  1.0
  C  C16  1  0.22340000  0.11160000  0.86430000  1.0
  C  C17  1  0.46690000  0.06290000  0.90430000  1.0
  C  C18  1  0.40330000  0.07910000  0.97420000  1.0
  C  C19  1  0.33610000  0.00270000  0.03820000  1.0
  C  C20  1  0.33333333  0.91330000  0.02790000  1.0
  C  C21  1  0.40070000  0.90150000  0.95560000  1.0
  C  C22  1  0.54530000  0.13830000  0.83270000  1.0
  C  C23  1  0.27230000  0.01490000  0.12010000  1.0
  C  C24  1  0.41090000  0.80570000  0.93930000  1.0
  C  C25  1  0.07700000  0.43880000  0.08940000  1.0
  C  C26  1  0.11770000  0.48050000  0.00260000  1.0
  C  C27  1  0.12810000  0.41810000  0.95590000  1.0
  C  C28  1  0.10080000  0.31720000  0.99820000  1.0
  C  C29  1  0.06590000  0.28330000  0.08640000  1.0
  C  C30  1  0.05120000  0.49580000  0.15100000  1.0
  C  C31  1  0.16560000  0.46140000  0.86030000  1.0
  C  C32  1  0.04010000  0.17630000  0.14220000  1.0
  C  C33  1  0.15050000  0.82790000  0.58330000  1.0
  C  C34  1  0.18790000  0.88830000  0.50100000  1.0
  C  C35  1  0.12240000  0.91720000  0.45700000  1.0
  C  C36  1  0.02340000  0.88520000  0.49810000  1.0
  C  C37  1  0.99230000  0.82250000  0.58150000  1.0
  C  C38  1  0.20700000  0.78840000  0.64170000  1.0
  C  C39  1  0.16140000  0.97860000  0.36450000  1.0
  C  C40  1  0.88840000  0.77660000  0.63570000  1.0
  C  C41  1  0.93710000  0.53310000  0.59570000  1.0
  C  C42  1  0.92090000  0.59670000  0.52580000  1.0
  C  C43  1  0.99730000  0.66390000  0.46180000  1.0
  C  C44  1  0.08670000  0.66666667  0.47210000  1.0
  C  C45  1  0.09850000  0.59930000  0.54440000  1.0
  C  C46  1  0.86170000  0.45470000  0.66730000  1.0
  C  C47  1  0.98510000  0.72770000  0.37990000  1.0
  C  C48  1  0.19430000  0.58910000  0.56070000  1.0
  C  C49  1  0.43880000  0.07700000  0.58940000  1.0
  C  C50  1  0.48050000  0.11770000  0.50260000  1.0
  C  C51  1  0.41810000  0.12810000  0.45590000  1.0
  C  C52  1  0.31720000  0.10080000  0.49820000  1.0
  C  C53  1  0.28330000  0.06590000  0.58640000  1.0
  C  C54  1  0.49580000  0.05120000  0.65100000  1.0
  C  C55  1  0.46140000  0.16560000  0.36030000  1.0
  C  C56  1  0.17630000  0.04010000  0.64220000  1.0
  C  C57  1  0.82790000  0.15050000  0.08330000  1.0
  C  C58  1  0.88830000  0.18790000  0.00100000  1.0
  C  C59  1  0.91720000  0.12240000  0.95700000  1.0
  C  C60  1  0.88520000  0.02340000  0.99810000  1.0
  C  C61  1  0.82250000  0.99230000  0.08150000  1.0
  C  C62  1  0.78840000  0.20700000  0.14170000  1.0
  C  C63  1  0.97860000  0.16140000  0.86450000  1.0
  C  C64  1  0.77660000  0.88840000  0.13570000  1.0
  C  C65  1  0.53310000  0.93710000  0.09570000  1.0
  C  C66  1  0.59670000  0.92090000  0.02580000  1.0
  C  C67  1  0.66390000  0.99730000  0.96180000  1.0
  C  C68  1  0.66666667  0.08670000  0.97210000  1.0
  C  C69  1  0.59930000  0.09850000  0.04440000  1.0
  C  C70  1  0.45470000  0.86170000  0.16730000  1.0
  C  C71  1  0.72770000  0.98510000  0.87990000  1.0
  C  C72  1  0.58910000  0.19430000  0.06070000  1.0
  C  C73  1  0.92300000  0.56120000  0.91060000  1.0
  C  C74  1  0.88230000  0.51950000  0.99740000  1.0
  C  C75  1  0.87190000  0.58190000  0.04410000  1.0
  C  C76  1  0.89920000  0.68280000  0.00180000  1.0
  C  C77  1  0.93410000  0.71670000  0.91360000  1.0
  C  C78  1  0.94880000  0.50420000  0.84900000  1.0
  C  C79  1  0.83440000  0.53860000  0.13970000  1.0
  C  C80  1  0.95990000  0.82370000  0.85780000  1.0
  C  C81  1  0.84950000  0.17210000  0.41670000  1.0
  C  C82  1  0.81210000  0.11170000  0.49900000  1.0
  C  C83  1  0.87760000  0.08280000  0.54300000  1.0
  C  C84  1  0.97660000  0.11480000  0.50190000  1.0
  C  C85  1  0.00770000  0.17750000  0.41850000  1.0
  C  C86  1  0.79300000  0.21160000  0.35830000  1.0
  C  C87  1  0.83860000  0.02140000  0.63550000  1.0
  C  C88  1  0.11160000  0.22340000  0.36430000  1.0
  C  C89  1  0.06290000  0.46690000  0.40430000  1.0
  C  C90  1  0.07910000  0.40330000  0.47420000  1.0
  C  C91  1  0.00270000  0.33610000  0.53820000  1.0
  C  C92  1  0.91330000  0.33333333  0.52790000  1.0
  C  C93  1  0.90150000  0.40070000  0.45560000  1.0
  C  C94  1  0.13830000  0.54530000  0.33270000  1.0
  C  C95  1  0.01490000  0.27230000  0.62010000  1.0
  C  C96  1  0.80570000  0.41090000  0.43930000  1.0
  N  N1  1  0.65770000  0.94870000  0.37040000  1.0
  N  N2  1  0.20530000  0.94490000  0.87860000  1.0
  N  N3  1  0.46700000  0.97480000  0.89460000  1.0
  N  N4  1  0.05130000  0.34230000  0.12960000  1.0
  N  N5  1  0.05510000  0.79470000  0.62140000  1.0
  N  N6  1  0.02520000  0.53300000  0.60540000  1.0
  N  N7  1  0.34230000  0.05130000  0.62960000  1.0
  N  N8  1  0.79470000  0.05510000  0.12140000  1.0
  N  N9  1  0.53300000  0.02520000  0.10540000  1.0
  N  N10  1  0.94870000  0.65770000  0.87040000  1.0
  N  N11  1  0.94490000  0.20530000  0.37860000  1.0
  N  N12  1  0.97480000  0.46700000  0.39460000  1.0
  O  O1  1  0.55660000  0.99680000  0.27350000  1.0
  O  O2  1  0.41670000  0.92750000  0.37530000  1.0
  O  O3  1  0.46320000  0.77860000  0.67450000  1.0
  O  O4  1  0.58510000  0.86030000  0.67630000  1.0
  O  O5  1  0.88870000  0.95110000  0.38750000  1.0
  O  O6  1  0.84200000  0.99020000  0.27750000  1.0
  O  O7  1  0.27930000  0.83790000  0.78650000  1.0
  O  O8  1  0.17970000  0.70670000  0.87950000  1.0
  O  O9  1  0.00690000  0.74910000  0.16890000  1.0
  O  O10  1  0.98880000  0.89700000  0.17180000  1.0
  O  O11  1  0.20620000  0.17640000  0.89350000  1.0
  O  O12  1  0.28240000  0.12100000  0.78960000  1.0
  O  O13  1  0.60130000  0.10610000  0.77540000  1.0
  O  O14  1  0.55220000  0.22200000  0.83360000  1.0
  O  O15  1  0.19050000  0.96650000  0.15930000  1.0
  O  O16  1  0.31150000  0.07030000  0.14260000  1.0
  O  O17  1  0.35380000  0.73360000  0.98840000  1.0
  O  O18  1  0.48140000  0.80680000  0.87170000  1.0
  O  O19  1  0.00320000  0.44340000  0.22650000  1.0
  O  O20  1  0.07250000  0.58330000  0.12470000  1.0
  O  O21  1  0.22140000  0.53680000  0.82550000  1.0
  O  O22  1  0.13970000  0.41490000  0.82370000  1.0
  O  O23  1  0.04890000  0.11130000  0.11250000  1.0
  O  O24  1  0.00980000  0.15800000  0.22250000  1.0
  O  O25  1  0.16210000  0.72070000  0.71350000  1.0
  O  O26  1  0.29330000  0.82030000  0.62050000  1.0
  O  O27  1  0.25090000  0.99310000  0.33110000  1.0
  O  O28  1  0.10300000  0.01120000  0.32820000  1.0
  O  O29  1  0.82360000  0.79380000  0.60650000  1.0
  O  O30  1  0.87900000  0.71760000  0.71040000  1.0
  O  O31  1  0.89390000  0.39870000  0.72460000  1.0
  O  O32  1  0.77800000  0.44780000  0.66640000  1.0
  O  O33  1  0.03350000  0.80950000  0.34070000  1.0
  O  O34  1  0.92970000  0.68850000  0.35740000  1.0
  O  O35  1  0.26640000  0.64620000  0.51160000  1.0
  O  O36  1  0.19320000  0.51860000  0.62830000  1.0
  O  O37  1  0.44340000  0.00320000  0.72650000  1.0
  O  O38  1  0.58330000  0.07250000  0.62470000  1.0
  O  O39  1  0.53680000  0.22140000  0.32550000  1.0
  O  O40  1  0.41490000  0.13970000  0.32370000  1.0
  O  O41  1  0.11130000  0.04890000  0.61250000  1.0
  O  O42  1  0.15800000  0.00980000  0.72250000  1.0
  O  O43  1  0.72070000  0.16210000  0.21350000  1.0
  O  O44  1  0.82030000  0.29330000  0.12050000  1.0
  O  O45  1  0.99310000  0.25090000  0.83110000  1.0
  O  O46  1  0.01120000  0.10300000  0.82820000  1.0
  O  O47  1  0.79380000  0.82360000  0.10650000  1.0
  O  O48  1  0.71760000  0.87900000  0.21040000  1.0
  O  O49  1  0.39870000  0.89390000  0.22460000  1.0
  O  O50  1  0.44780000  0.77800000  0.16640000  1.0
  O  O51  1  0.80950000  0.03350000  0.84070000  1.0
  O  O52  1  0.68850000  0.92970000  0.85740000  1.0
  O  O53  1  0.64620000  0.26640000  0.01160000  1.0
  O  O54  1  0.51860000  0.19320000  0.12830000  1.0
  O  O55  1  0.99680000  0.55660000  0.77350000  1.0
  O  O56  1  0.92750000  0.41670000  0.87530000  1.0
  O  O57  1  0.77860000  0.46320000  0.17450000  1.0
  O  O58  1  0.86030000  0.58510000  0.17630000  1.0
  O  O59  1  0.95110000  0.88870000  0.88750000  1.0
  O  O60  1  0.99020000  0.84200000  0.77750000  1.0
  O  O61  1  0.83790000  0.27930000  0.28650000  1.0
  O  O62  1  0.70670000  0.17970000  0.37950000  1.0
  O  O63  1  0.74910000  0.00690000  0.66890000  1.0
  O  O64  1  0.89700000  0.98880000  0.67180000  1.0
  O  O65  1  0.17640000  0.20620000  0.39350000  1.0
  O  O66  1  0.12100000  0.28240000  0.28960000  1.0
  O  O67  1  0.10610000  0.60130000  0.27540000  1.0
  O  O68  1  0.22200000  0.55220000  0.33360000  1.0
  O  O69  1  0.96650000  0.19050000  0.65930000  1.0
  O  O70  1  0.07030000  0.31150000  0.64260000  1.0
  O  O71  1  0.73360000  0.35380000  0.48840000  1.0
  O  O72  1  0.80680000  0.48140000  0.37170000  1.0
