# generated using pymatgen
data_H8C11N3O
_symmetry_space_group_name_H-M   'P 1'
_cell_length_a   9.91533333
_cell_length_b   22.96785000
_cell_length_c   22.96785000
_cell_angle_alpha   120.00000000
_cell_angle_beta   90.00000000
_cell_angle_gamma   90.00000000
_symmetry_Int_Tables_number   1
_chemical_formula_structural   H8C11N3O
_chemical_formula_sum   'H48 C66 N18 O6'
_cell_volume   4529.79592693
_cell_formula_units_Z   6
loop_
 _symmetry_equiv_pos_site_id
 _symmetry_equiv_pos_as_xyz
  1  'x, y, z'
loop_
 _atom_site_type_symbol
 _atom_site_label
 _atom_site_symmetry_multiplicity
 _atom_site_fract_x
 _atom_site_fract_y
 _atom_site_fract_z
 _atom_site_occupancy
  C  1  1  0.05588100  0.95046250  0.47736950  1
  C  2  1  0.06146700  0.90935500  0.50885800  1
  C  3  1  0.99026700  0.84653750  0.48016250  1
  C  4  1  0.97937700  0.84745750  0.37276550  1
  C  5  1  0.02653600  0.91424900  0.40680200  1
  C  9  1  0.65001100  0.82697000  0.52740000  1
  C  73  1  0.94995900  0.81802550  0.41215950  1
  C  76  1  0.07960700  0.78789150  0.25926450  1
  C  77  1  0.96535400  0.80718900  0.30197900  1
  C  79  1  0.85080900  0.70876050  0.21709550  1
  C  82  1  0.97221200  0.80323650  0.50759750  1
  C  84  1  0.08052800  0.72402900  0.53301700  1
  C  86  1  0.85112800  0.76581200  0.49616300  1
  C  175  1  0.99082500  0.61237250  0.13664550  1
  C  179  1  0.98032500  0.61038400  0.47916300  1
  C  182  1  0.97214700  0.68308400  0.17981000  1
  C  184  1  0.65004500  0.67843200  0.15565600  1
  C  187  1  0.96648500  0.68117550  0.50994650  1
  C  253  1  0.05595100  0.02376550  0.51390050  1
  C  254  1  0.02669800  0.05996950  0.58447050  1
  C  255  1  0.98050900  0.12691750  0.61870650  1
  C  256  1  0.95144600  0.15657800  0.57949100  1
  C  257  1  0.99186700  0.12808050  0.51149850  1
  C  258  1  0.06191700  0.06492450  0.48245950  1
  C  265  1  0.05557300  0.46893800  0.95916500  1
  C  266  1  0.02594600  0.50335150  0.92304250  1
  C  267  1  0.98058300  0.47057750  0.85596550  1
  C  268  1  0.95283400  0.40156550  0.82606250  1
  C  269  1  0.99270500  0.36213450  0.85469750  1
  C  270  1  0.06224900  0.39635400  0.91798700  1
  C  273  1  0.05542600  0.50569800  0.03246900  1
  C  274  1  0.06128600  0.57829200  0.07362000  1
  C  275  1  0.95102200  0.57288000  0.16522400  1
  C  276  1  0.97988200  0.50397700  0.13555000  1
  C  277  1  0.02599200  0.47126650  0.06859350  1
  C  283  1  0.05568900  0.46891250  0.51413850  1
  C  284  1  0.02656600  0.39832050  0.47968850  1
  C  285  1  0.97996800  0.36411800  0.51237600  1
  C  286  1  0.95091200  0.40334200  0.58126700  1
  C  287  1  0.99143100  0.47128900  0.62078800  1
  C  288  1  0.06165000  0.50031750  0.58672150  1
  C  291  1  0.05549600  0.50551600  0.47743900  1
  C  292  1  0.06189100  0.47414250  0.40485250  1
  C  293  1  0.99209000  0.50323600  0.37072300  1
  C  294  1  0.95200000  0.57127050  0.41021150  1
  C  295  1  0.02592200  0.57606050  0.51187850  1
  C  302  1  0.97379600  0.47563450  0.29997150  1
  C  304  1  0.08121500  0.45051100  0.19534800  1
  C  305  1  0.96663400  0.47331650  0.17572150  1
  C  307  1  0.85240200  0.48730300  0.27433400  1
  C  310  1  0.65177400  0.45556600  0.30418000  1
  C  314  1  0.97450200  0.29137250  0.81161550  1
  C  316  1  0.08178400  0.18673600  0.73187000  1
  C  317  1  0.96702900  0.16714650  0.68952850  1
  C  319  1  0.85306900  0.26575100  0.77430800  1
  C  322  1  0.65253600  0.29555000  0.83597100  1
  C  326  1  0.97285700  0.49890850  0.69151350  1
  C  328  1  0.08078200  0.52450700  0.79627500  1
  C  329  1  0.96673200  0.50134600  0.81595200  1
  C  331  1  0.85173200  0.48734500  0.71737000  1
  C  334  1  0.65066400  0.51827500  0.68710500  1
  C  338  1  0.97364400  0.17126450  0.48392050  1
  C  340  1  0.08124050  0.25081350  0.45890750  1
  C  341  1  0.96670000  0.29327750  0.48171950  1
  C  343  1  0.85228300  0.20859500  0.49555500  1
  C  346  1  0.65168000  0.14699700  0.46361800  1
  H  6  1  0.02038400  0.93789350  0.37952350  1
  H  8  1  0.14303700  0.90342100  0.58793600  1
  H  10  1  0.55956000  0.83488200  0.50532300  1
  H  11  1  0.70033000  0.87550800  0.55710000  1
  H  67  1  0.20381200  0.96489400  0.57863000  1
  H  74  1  0.91753900  0.76903100  0.38718600  1
  H  80  1  0.16952700  0.81229600  0.27648300  1
  H  81  1  0.61877400  0.73056250  0.17496350  1
  H  87  1  0.17066700  0.70692200  0.54011500  1
  H  89  1  0.61924400  0.80769400  0.56031700  1
  H  176  1  0.91920400  0.59691100  0.21431700  1
  H  178  1  0.14291600  0.66333700  0.07967400  1
  H  180  1  0.92063100  0.59632100  0.38609900  1
  H  181  1  0.01980600  0.60323000  0.56281000  1
  H  185  1  0.55987700  0.64821300  0.14756800  1
  H  186  1  0.70058800  0.65978650  0.10719850  1
  H  259  1  0.02081800  0.03633000  0.61176900  1
  H  260  1  0.92000000  0.20572000  0.60452100  1
  H  262  1  0.20381200  0.00923250  0.41264350  1
  H  263  1  0.14408700  0.07115500  0.40375500  1
  H  271  1  0.01951700  0.55427650  0.94681350  1
  H  272  1  0.92149300  0.37743550  0.77689050  1
  H  278  1  0.02031000  0.42032400  0.04488900  1
  H  280  1  0.20407600  0.38243800  0.97383200  1
  H  281  1  0.14522700  0.31154500  0.91167000  1
  H  282  1  0.20305100  0.59259250  0.01789050  1
  H  289  1  0.02018300  0.37112350  0.42876650  1
  H  290  1  0.91916800  0.37824300  0.60526600  1
  H  298  1  0.20353000  0.57014500  0.60086200  1
  H  299  1  0.14378900  0.57915700  0.67169100  1
  H  300  1  0.14468200  0.39561400  0.31996900  1
  H  301  1  0.20389300  0.40446750  0.39083850  1
  H  308  1  0.17084500  0.44270600  0.17053100  1
  H  311  1  0.56154000  0.47743700  0.33443700  1
  H  312  1  0.70247900  0.42550600  0.32248700  1
  H  313  1  0.62059600  0.42303600  0.25198300  1
  H  320  1  0.17139900  0.16191850  0.71479550  1
  H  323  1  0.56230700  0.32582850  0.84443250  1
  H  324  1  0.70332000  0.31379150  0.88430850  1
  H  325  1  0.62134200  0.24334550  0.81624850  1
  H  332  1  0.17083800  0.53169200  0.82057100  1
  H  335  1  0.56038100  0.49606450  0.65701850  1
  H  336  1  0.70098100  0.54795800  0.66824800  1
  H  337  1  0.61961700  0.55122950  0.73924450  1
  H  344  1  0.17091400  0.26782150  0.45114050  1
  H  347  1  0.56134000  0.13858350  0.48539950  1
  H  348  1  0.70242200  0.09863700  0.43357000  1
  H  349  1  0.62067050  0.16669850  0.43109150  1
  N  7  1  0.13757100  0.92916900  0.56508600  1
  N  75  1  0.08067900  0.72534150  0.20326950  1
  N  78  1  0.85689000  0.76566350  0.27770850  1
  N  83  1  0.08107400  0.77995650  0.52635750  1
  N  85  1  0.85775300  0.70529550  0.49264050  1
  N  177  1  0.13708300  0.61475750  0.05375350  1
  N  261  1  0.13749600  0.04488100  0.42601500  1
  N  279  1  0.13800500  0.36004800  0.93808100  1
  N  296  1  0.13730900  0.55671800  0.62315800  1
  N  297  1  0.13755100  0.41772150  0.36846350  1
  N  303  1  0.08237900  0.45680450  0.25776850  1
  N  306  1  0.85807600  0.49064500  0.21722200  1
  N  315  1  0.08301900  0.24913100  0.78804400  1
  N  318  1  0.85857000  0.20866950  0.71382250  1
  N  327  1  0.08154800  0.51777900  0.73366500  1
  N  330  1  0.85818200  0.48388700  0.77440200  1
  N  339  1  0.08229800  0.19465600  0.46515200  1
  N  342  1  0.85805500  0.26907750  0.49896150  1
  O  88  1  0.73455600  0.77978850  0.47366250  1
  O  183  1  0.73459100  0.67199200  0.20290600  1
  O  309  1  0.73608800  0.50951900  0.31109800  1
  O  321  1  0.73676300  0.30253600  0.78894900  1
  O  333  1  0.73535700  0.46466900  0.68075700  1
  O  345  1  0.73585600  0.19401200  0.51765800  1
