# generated using pymatgen
data_H25C39N4O
_symmetry_space_group_name_H-M   'P 1'
_cell_length_a   9.89106667
_cell_length_b   29.88510000
_cell_length_c   29.88500000
_cell_angle_alpha   89.92830000
_cell_angle_beta   90.00000000
_cell_angle_gamma   90.00000000
_symmetry_Int_Tables_number   1
_chemical_formula_structural   H25C39N4O
_chemical_formula_sum   'H50 C78 N8 O2'
_cell_volume   8833.86509187
_cell_formula_units_Z   2
loop_
 _symmetry_equiv_pos_site_id
 _symmetry_equiv_pos_as_xyz
  1  'x, y, z'
loop_
 _atom_site_type_symbol
 _atom_site_label
 _atom_site_symmetry_multiplicity
 _atom_site_fract_x
 _atom_site_fract_y
 _atom_site_fract_z
 _atom_site_occupancy
  C  1  1  0.97856100  0.90890200  0.12270000  1
  C  2  1  0.88193900  0.37205400  0.03063300  1
  C  3  1  0.88260800  0.32493500  0.03002900  1
  C  7  1  0.86708700  0.47191700  0.01134500  1
  C  9  1  0.97861400  0.87609100  0.09022400  1
  C  10  1  0.98257600  0.39715500  0.00811100  1
  C  12  1  0.87995900  0.96810500  0.33985300  1
  C  13  1  0.87911000  0.96755600  0.38698100  1
  C  14  1  0.98035800  0.98976400  0.41204000  1
  C  18  1  0.86494400  0.98680300  0.48685400  1
  C  20  1  0.98241500  0.99157200  0.26754300  1
  C  21  1  0.98165100  0.99104600  0.31557900  1
  C  22  1  0.98213200  0.98888200  0.45988400  1
  C  23  1  0.86097100  0.99620100  0.24273400  1
  C  24  1  0.86138500  0.99656500  0.19561600  1
  C  25  1  0.86208400  0.22798900  0.00189900  1
  C  26  1  0.86195300  0.18087200  0.00176200  1
  C  27  1  0.86562200  0.99845400  0.81650100  1
  C  28  1  0.86715900  0.99817200  0.76937700  1
  C  29  1  0.92306400  0.02120400  0.62476600  1
  C  30  1  0.92037800  0.02180400  0.67188700  1
  C  31  1  0.86580900  0.80159800  0.99988100  1
  C  32  1  0.86733600  0.75447500  0.00047000  1
  C  33  1  0.92071400  0.65712600  0.97667600  1
  C  34  1  0.92380200  0.61000600  0.97711100  1
  C  52  1  0.98406800  0.95056600  0.10148800  1
  C  54  1  0.98460000  0.99257100  0.12393500  1
  C  66  1  0.98426300  0.89685500  0.04832900  1
  C  67  1  0.98495000  0.87397000  0.00654600  1
  C  68  1  0.98378800  0.10904800  0.00634000  1
  C  69  1  0.98367000  0.08770600  0.04885000  1
  C  71  1  0.98471800  0.03487100  0.10219400  1
  C  72  1  0.98473800  0.07658800  0.12321600  1
  C  73  1  0.98363600  0.10911300  0.09037700  1
  C  74  1  0.98418600  0.15682100  0.00574400  1
  C  75  1  0.10634200  0.18091500  0.00975300  1
  C  76  1  0.10593800  0.22803500  0.00994300  1
  C  77  1  0.98389500  0.25266100  0.00611300  1
  C  78  1  0.98349400  0.30070100  0.00671700  1
  C  80  1  0.98574300  0.82615800  0.00725000  1
  C  81  1  0.10688200  0.80251300  0.01542300  1
  C  82  1  0.10781700  0.75541000  0.01632500  1
  C  83  1  0.98821600  0.73040000  0.00881200  1
  C  84  1  0.98987700  0.68246900  0.00952600  1
  C  85  1  0.99741500  0.58654100  0.01018800  1
  C  86  1  0.06409000  0.61158500  0.04363600  1
  C  87  1  0.06091700  0.65868600  0.04315600  1
  C  96  1  0.00012933  0.53900900  0.01024600  1
  C  97  1  0.98431700  0.44500100  0.00898400  1
  C  99  1  0.11928200  0.51256500  0.00739600  1
  C  185  1  0.98367600  0.94823300  0.91066900  1
  C  186  1  0.98365900  0.90648900  0.88968500  1
  C  187  1  0.98376000  0.99053500  0.88886200  1
  C  188  1  0.98380200  0.99235200  0.17170900  1
  C  189  1  0.10552300  0.98776400  0.19594200  1
  C  190  1  0.10458000  0.98735700  0.24305800  1
  C  193  1  0.98539500  0.99070100  0.84104500  1
  C  194  1  0.98790200  0.98974400  0.74528200  1
  C  195  1  0.10747800  0.98204100  0.77026400  1
  C  196  1  0.10655400  0.98267700  0.81737100  1
  C  197  1  0.98927600  0.98892900  0.69735400  1
  C  198  1  0.05940500  0.95505500  0.67371000  1
  C  199  1  0.06209900  0.95439400  0.62660600  1
  C  200  1  0.99579700  0.98788400  0.60142700  1
  C  207  1  0.99832400  0.98767500  0.55389400  1
  C  210  1  0.11737300  0.99019200  0.52739600  1
  C  211  1  0.25653900  0.99456700  0.54550900  1
  C  284  1  0.98477100  0.89535900  0.96404400  1
  C  285  1  0.98524700  0.87396600  0.92251500  1
  C  286  1  0.98420200  0.03254700  0.91132800  1
  C  288  1  0.98429300  0.08621900  0.96454200  1
  C  289  1  0.98984300  0.10703800  0.92268500  1
  C  290  1  0.99003600  0.07424300  0.89017700  1
  C  291  1  0.08276500  0.01235900  0.38779700  1
  C  292  1  0.08294800  0.01320400  0.34068000  1
  C  293  1  0.08427600  0.32584200  0.98428500  1
  C  294  1  0.08431100  0.37296100  0.98519500  1
  C  309  1  0.25827100  0.53077400  0.00276900  1
  H  4  1  0.80966300  0.30843900  0.04786200  1
  H  5  1  0.80863300  0.38777800  0.04892400  1
  H  8  1  0.77238800  0.45832500  0.01175500  1
  H  11  1  0.97343800  0.84255800  0.09676000  1
  H  15  1  0.80517900  0.94953900  0.40274100  1
  H  16  1  0.80648800  0.95052600  0.32338600  1
  H  19  1  0.77019400  0.98669100  0.47329500  1
  H  35  1  0.87418100  0.59294400  0.95236900  1
  H  36  1  0.86948400  0.67279900  0.95137200  1
  H  37  1  0.77809800  0.73786700  0.99557800  1
  H  38  1  0.77647000  0.81789500  0.99406900  1
  H  39  1  0.77624400  0.00413900  0.83280700  1
  H  40  1  0.77791700  0.00316200  0.75278400  1
  H  41  1  0.77195100  0.16422500  0.99875000  1
  H  42  1  0.77155800  0.24414200  0.99823500  1
  H  43  1  0.77172400  0.00007200  0.17885800  1
  H  44  1  0.77042600  0.00019600  0.25878700  1
  H  45  1  0.86972100  0.04725200  0.68746700  1
  H  46  1  0.87364100  0.04596000  0.60760400  1
  H  48  1  0.97366900  0.90273200  0.15630900  1
  H  49  1  0.97450300  0.01909800  0.97858000  1
  H  50  1  0.98316200  0.90013700  0.85609000  1
  H  55  1  0.99371500  0.96397400  0.03423800  1
  H  88  1  0.11381700  0.59572600  0.06914400  1
  H  89  1  0.10919300  0.67550700  0.06832200  1
  H  90  1  0.19796900  0.73949000  0.02170200  1
  H  91  1  0.19540100  0.81946100  0.02070200  1
  H  93  1  0.98328500  0.14277800  0.09636400  1
  H  94  1  0.19631200  0.16428400  0.01299300  1
  H  95  1  0.19627100  0.24420900  0.01396900  1
  H  100  1  0.28415800  0.54941700  0.03288400  1
  H  201  1  0.19493500  0.97708600  0.83431000  1
  H  202  1  0.19752500  0.97658100  0.75432000  1
  H  203  1  0.19465200  0.98306700  0.25933300  1
  H  204  1  0.19564400  0.98445300  0.17942600  1
  H  205  1  0.10741800  0.92986200  0.69063500  1
  H  206  1  0.11119400  0.92872700  0.61085900  1
  H  212  1  0.28196000  0.96443600  0.56426700  1
  H  297  1  0.98607900  0.84031100  0.91649800  1
  H  299  1  0.99518000  0.08045800  0.85658200  1
  H  300  1  0.99476600  0.14059100  0.91621400  1
  H  301  1  0.98509500  0.08288300  0.15682300  1
  H  302  1  0.15866300  0.38948300  0.96801200  1
  H  303  1  0.15812600  0.31005400  0.96626600  1
  H  304  1  0.15732800  0.03099900  0.32486100  1
  H  305  1  0.15757400  0.02932300  0.40427700  1
  H  307  1  0.33065000  0.99743900  0.51844500  1
  H  308  1  0.25818600  0.05967900  0.55698600  1
  H  311  1  0.33245500  0.50376100  0.99969700  1
  H  312  1  0.25865000  0.54253600  0.93767900  1
  N  6  1  0.87965000  0.51712000  0.01154400  1
  N  17  1  0.87766400  0.98666500  0.53205400  1
  N  47  1  0.98081100  0.04168300  0.95578900  1
  N  53  1  0.98741100  0.94140000  0.05703700  1
  N  70  1  0.98421600  0.04332900  0.05773400  1
  N  98  1  0.10418800  0.46728500  0.00672300  1
  N  184  1  0.98401700  0.93974500  0.95513300  1
  N  209  1  0.10211000  0.99087300  0.48212200  1
  O  306  1  0.27055500  0.03220800  0.57476100  1
  O  310  1  0.27143400  0.56020000  0.96515500  1
