# generated using pymatgen
data_SiH28(C19N2)2
_symmetry_space_group_name_H-M   'P 1'
_cell_length_a   23.88745000
_cell_length_b   23.88745000
_cell_length_c   39.00600000
_cell_angle_alpha   90.00000000
_cell_angle_beta   90.00000000
_cell_angle_gamma   120.00000000
_symmetry_Int_Tables_number   1
_chemical_formula_structural   SiH28(C19N2)2
_chemical_formula_sum   'Si4 H112 C152 N16'
_cell_volume   19275.32148330
_cell_formula_units_Z   4
loop_
 _symmetry_equiv_pos_site_id
 _symmetry_equiv_pos_as_xyz
  1  'x, y, z'
loop_
 _atom_site_type_symbol
 _atom_site_label
 _atom_site_symmetry_multiplicity
 _atom_site_fract_x
 _atom_site_fract_y
 _atom_site_fract_z
 _atom_site_occupancy
  C  1  1  0.56345850  0.11910950  0.97276500  1
  C  2  1  0.58064150  0.13595650  0.93801700  1
  C  3  1  0.61137450  0.20072250  0.92717800  1
  C  4  1  0.62502650  0.25138750  0.95052500  1
  C  5  1  0.61035000  0.23481100  0.98553600  1
  C  6  1  0.57962600  0.17003500  0.99635000  1
  C  8  1  0.73384100  0.35954000  0.95861400  1
  C  9  1  0.75142450  0.40290950  0.98662100  1
  C  10  1  0.81227050  0.42825850  0.00239500  1
  C  11  1  0.85773450  0.41118150  0.99070200  1
  C  12  1  0.83883300  0.36489800  0.96415200  1
  C  13  1  0.77739850  0.33831350  0.94901800  1
  C  14  1  0.66839600  0.33792100  0.89644800  1
  C  15  1  0.62261100  0.36680200  0.94983700  1
  C  16  1  0.65142750  0.43415850  0.94395000  1
  C  17  1  0.61897000  0.46776400  0.95232500  1
  C  18  1  0.55589400  0.43527700  0.96635600  1
  C  19  1  0.52606700  0.36749200  0.97076700  1
  C  20  1  0.55847300  0.33382300  0.96241200  1
  C  21  1  0.61117250  0.30984150  0.87647100  1
  C  22  1  0.61373600  0.31428900  0.84053900  1
  C  23  1  0.67359300  0.34757800  0.82312800  1
  C  24  1  0.73052850  0.37887950  0.84314700  1
  C  25  1  0.72793300  0.37498600  0.87912500  1
  C  42  1  0.44610500  0.88408800  0.47275800  1
  C  43  1  0.42893150  0.86724550  0.43801000  1
  C  44  1  0.39820550  0.80248350  0.42716800  1
  C  45  1  0.38449850  0.75180250  0.45051300  1
  C  46  1  0.39916350  0.76837650  0.48552600  1
  C  47  1  0.42991150  0.83315550  0.49634200  1
  C  49  1  0.27569200  0.64364300  0.45859400  1
  C  50  1  0.25808600  0.60023900  0.48658400  1
  C  51  1  0.19722800  0.57486600  0.50234900  1
  C  52  1  0.15176450  0.59195250  0.49066300  1
  C  53  1  0.17067400  0.63824200  0.46411600  1
  C  54  1  0.23212200  0.66485200  0.44899500  1
  C  55  1  0.34115550  0.66528150  0.39643200  1
  C  56  1  0.38692650  0.63639250  0.44981800  1
  C  57  1  0.35812150  0.56903750  0.44392700  1
  C  58  1  0.39056350  0.53542250  0.45231500  1
  C  59  1  0.45361200  0.56789500  0.46638200  1
  C  60  1  0.48342950  0.63567650  0.47081000  1
  C  61  1  0.45104100  0.66935400  0.46243200  1
  C  62  1  0.39838550  0.69337250  0.37645800  1
  C  63  1  0.39583000  0.68894700  0.34052500  1
  C  64  1  0.33598050  0.65564950  0.32310700  1
  C  65  1  0.27903950  0.62434850  0.34312200  1
  C  66  1  0.28162400  0.62823400  0.37910100  1
  C  83  1  0.43337250  0.85969250  0.01743600  1
  C  84  1  0.46368950  0.83861650  0.04103800  1
  C  85  1  0.43010150  0.77595050  0.05475600  1
  C  86  1  0.36445350  0.73303750  0.04626000  1
  C  87  1  0.33540400  0.75358900  0.02135600  1
  C  88  1  0.36912400  0.81623700  0.00741700  1
  C  90  1  0.36779750  0.62668650  0.04615500  1
  C  91  1  0.36175500  0.61343100  0.01046100  1
  C  92  1  0.39408800  0.58464400  0.99482800  1
  C  93  1  0.43540550  0.57084050  0.01427800  1
  C  94  1  0.44407400  0.58637300  0.04948000  1
  C  95  1  0.41104550  0.61443050  0.06517000  1
  C  96  1  0.32918350  0.66104250  0.10622800  1
  C  97  1  0.24849450  0.61553650  0.05505600  1
  C  98  1  0.21951850  0.54963550  0.04541900  1
  C  99  1  0.15329000  0.51326900  0.03793100  1
  C  100  1  0.11378050  0.54156950  0.03981500  1
  C  101  1  0.14099900  0.60531500  0.05249500  1
  C  102  1  0.20712400  0.64121300  0.06075800  1
  C  103  1  0.34790000  0.71827300  0.12528400  1
  C  104  1  0.34832350  0.71775450  0.16130100  1
  C  105  1  0.32768050  0.65941950  0.17919600  1
  C  106  1  0.30659150  0.60165250  0.16067300  1
  C  107  1  0.30707250  0.60250050  0.12465800  1
  C  124  1  0.57619400  0.14349700  0.51744600  1
  C  125  1  0.54587650  0.16455150  0.54106100  1
  C  126  1  0.57945750  0.22721050  0.55478700  1
  C  127  1  0.64510250  0.27012950  0.54629300  1
  C  128  1  0.67413950  0.24962150  0.52135900  1
  C  129  1  0.64043700  0.18697100  0.50742200  1
  C  131  1  0.64170600  0.37647500  0.54619300  1
  C  132  1  0.64768500  0.38968400  0.51049400  1
  C  133  1  0.61537050  0.41851150  0.49488100  1
  C  134  1  0.57403750  0.43227650  0.51433900  1
  C  135  1  0.56537550  0.41671650  0.54953900  1
  C  136  1  0.59842150  0.38867050  0.56521600  1
  C  137  1  0.68035200  0.34213900  0.60625100  1
  C  138  1  0.76102900  0.38764000  0.55507100  1
  C  139  1  0.78999450  0.45352550  0.54540600  1
  C  140  1  0.85620200  0.48985800  0.53786400  1
  C  141  1  0.89571150  0.46155850  0.53976300  1
  C  142  1  0.86851600  0.39785100  0.55249500  1
  C  143  1  0.80241050  0.36198650  0.56080600  1
  C  144  1  0.66168600  0.28492500  0.62531200  1
  C  145  1  0.66132600  0.28546900  0.66132900  1
  C  146  1  0.68193550  0.34380450  0.67921900  1
  C  147  1  0.70298700  0.40155800  0.66068800  1
  C  148  1  0.70248300  0.40069400  0.62467300  1
  C  165  1  0.73681850  0.36069950  0.73546900  1
  C  166  1  0.68138650  0.34443750  0.71533100  1
  C  167  1  0.62379600  0.32948900  0.73268700  1
  C  169  1  0.67641850  0.34803950  0.78674100  1
  C  172  1  0.80044700  0.37754100  0.72072000  1
  C  173  1  0.84088350  0.35035850  0.73669500  1
  C  174  1  0.80508250  0.32241750  0.70291500  1
  C  180  1  0.27277800  0.64249900  0.23544100  1
  C  181  1  0.32822550  0.65879650  0.21530800  1
  C  182  1  0.38582100  0.67378900  0.23267200  1
  C  184  1  0.33316800  0.65518300  0.28672000  1
  C  187  1  0.20914550  0.62562950  0.22068400  1
  C  188  1  0.16869100  0.65280400  0.23664600  1
  C  189  1  0.20449150  0.68072850  0.20286200  1
  C  195  1  0.47987350  0.94046750  0.96983200  1
  C  196  1  0.46671450  0.92404550  0.00501800  1
  C  197  1  0.48858850  0.97569450  0.02856000  1
  C  199  1  0.53139800  0.05336600  0.98360400  1
  C  202  1  0.46074900  0.89241500  0.94186100  1
  C  203  1  0.51201500  0.90033200  0.91538500  1
  C  204  1  0.48829700  0.84628400  0.94211100  1
  C  210  1  0.52340350  0.56950750  0.98075000  1
  C  211  1  0.46466700  0.53805200  0.99938400  1
  C  212  1  0.43686400  0.47108100  0.00508700  1
  C  214  1  0.52408400  0.46965800  0.97633300  1
  C  217  1  0.55957300  0.64008900  0.97448600  1
  C  218  1  0.59524800  0.66716400  0.94031700  1
  C  219  1  0.53159350  0.66599250  0.94724900  1
  C  225  1  0.03396800  0.48271400  0.99339500  1
  C  226  1  0.04938400  0.50787300  0.02726300  1
  C  227  1  0.99733600  0.49949000  0.04810100  1
  C  229  1  0.92150600  0.44187700  0.00393600  1
  C  232  1  0.08201350  0.48962750  0.96722400  1
  C  233  1  0.07976800  0.51733200  0.93191600  1
  C  234  1  0.13517950  0.55795650  0.95666700  1
  C  240  1  0.52968450  0.06273150  0.46983600  1
  C  241  1  0.54286400  0.07914700  0.50502000  1
  C  242  1  0.52103150  0.02749450  0.52856000  1
  C  244  1  0.47817600  0.94983000  0.48360000  1
  C  247  1  0.54880350  0.11078850  0.44186800  1
  C  248  1  0.49752600  0.10287700  0.41540100  1
  C  249  1  0.52126400  0.15692900  0.44212600  1
  C  255  1  0.48610550  0.43366850  0.48077000  1
  C  256  1  0.54477250  0.46508450  0.49946400  1
  C  257  1  0.57251650  0.53203350  0.50522500  1
  C  259  1  0.48539100  0.53350100  0.47639100  1
  C  262  1  0.44998550  0.36310450  0.47444800  1
  C  263  1  0.41435950  0.33610450  0.44025800  1
  C  264  1  0.47803150  0.33731050  0.44719100  1
  C  270  1  0.97552400  0.52038100  0.49333500  1
  C  271  1  0.96010850  0.49524650  0.52720900  1
  C  272  1  0.01215600  0.50363900  0.54804900  1
  C  274  1  0.08798050  0.56121750  0.50387900  1
  C  277  1  0.92748200  0.51347100  0.46716400  1
  C  278  1  0.92971400  0.48575100  0.43186000  1
  C  279  1  0.87430150  0.44514250  0.45661500  1
  H  26  1  0.64261550  0.51663250  0.94835300  1
  H  27  1  0.69713100  0.46017800  0.93401300  1
  H  28  1  0.48001850  0.34142450  0.98013800  1
  H  29  1  0.53375750  0.28479050  0.96546000  1
  H  30  1  0.56660200  0.28367700  0.88768100  1
  H  31  1  0.57117000  0.29082600  0.82725600  1
  H  32  1  0.77483400  0.40507200  0.83175200  1
  H  33  1  0.77055200  0.39960100  0.89215400  1
  H  34  1  0.76625600  0.30518300  0.92978100  1
  H  35  1  0.86972000  0.35005400  0.95543200  1
  H  36  1  0.82385800  0.46136700  0.02164900  1
  H  37  1  0.72064100  0.41718400  0.99606500  1
  H  38  1  0.62083600  0.26962200  0.00373300  1
  H  39  1  0.62406950  0.20969550  0.90193100  1
  H  40  1  0.57150950  0.10122450  0.92004100  1
  H  41  1  0.56897050  0.16072150  0.02183800  1
  H  67  1  0.36691750  0.48655550  0.44834400  1
  H  68  1  0.31243450  0.54302450  0.43396900  1
  H  69  1  0.52945700  0.66173500  0.48021100  1
  H  70  1  0.47574850  0.71838350  0.46549800  1
  H  71  1  0.44295150  0.71952750  0.38767400  1
  H  72  1  0.43840650  0.71239450  0.32725000  1
  H  73  1  0.23473650  0.59815750  0.33172400  1
  H  74  1  0.23899950  0.60361550  0.39212500  1
  H  75  1  0.24326750  0.69799250  0.42976200  1
  H  76  1  0.13978400  0.65308300  0.45539400  1
  H  77  1  0.18563200  0.54173700  0.52159200  1
  H  78  1  0.28886450  0.58595950  0.49602700  1
  H  79  1  0.38867550  0.73356450  0.50372000  1
  H  80  1  0.38549550  0.79351550  0.40192100  1
  H  81  1  0.43807900  0.90198300  0.42003300  1
  H  82  1  0.44056750  0.84246250  0.52183000  1
  H  108  1  0.13455900  0.46637100  0.03008800  1
  H  109  1  0.24583250  0.52672750  0.04342500  1
  H  110  1  0.11358250  0.62712350  0.05445600  1
  H  111  1  0.22504450  0.68756950  0.06938500  1
  H  112  1  0.36102150  0.76128750  0.11351100  1
  H  113  1  0.36275750  0.76001250  0.17433300  1
  H  114  1  0.29111350  0.55873250  0.17321500  1
  H  115  1  0.29157250  0.55950350  0.11217600  1
  H  116  1  0.41946750  0.62565150  0.09062000  1
  H  117  1  0.47399600  0.57680600  0.06402400  1
  H  118  1  0.38647150  0.57301950  0.96935000  1
  H  119  1  0.33195250  0.62245850  0.99545000  1
  H  120  1  0.28954650  0.72356850  0.01271900  1
  H  121  1  0.45419100  0.76293500  0.07182000  1
  H  122  1  0.51057650  0.86869550  0.04839300  1
  H  123  1  0.34593100  0.83021800  0.99034400  1
  H  149  1  0.87494450  0.53676550  0.53003700  1
  H  150  1  0.76367750  0.47643250  0.54340600  1
  H  151  1  0.89591300  0.37601600  0.55442300  1
  H  152  1  0.78447100  0.31559200  0.56937900  1
  H  153  1  0.64858500  0.24191100  0.61354400  1
  H  154  1  0.64689200  0.24321500  0.67436600  1
  H  155  1  0.71845450  0.44447950  0.67322700  1
  H  156  1  0.71795650  0.44368150  0.61218800  1
  H  157  1  0.59001150  0.37743650  0.59066300  1
  H  158  1  0.53542950  0.42624250  0.56408800  1
  H  159  1  0.62300450  0.43017850  0.46940800  1
  H  160  1  0.67757050  0.38077150  0.49548600  1
  H  161  1  0.71998750  0.27966250  0.51271600  1
  H  162  1  0.55536650  0.24020850  0.57186100  1
  H  163  1  0.49899350  0.13445950  0.54841800  1
  H  164  1  0.66361600  0.17301900  0.49032200  1
  H  171  1  0.58215500  0.31724800  0.71957900  1
  H  175  1  0.82775400  0.42397100  0.70765000  1
  H  176  1  0.83604800  0.33559300  0.68030600  1
  H  177  1  0.76401100  0.27339400  0.70505300  1
  H  178  1  0.82064250  0.31865350  0.75890100  1
  H  179  1  0.89322450  0.38082150  0.73445900  1
  H  186  1  0.42747350  0.68605250  0.21956900  1
  H  190  1  0.18185100  0.57918700  0.20762500  1
  H  191  1  0.17352350  0.66752250  0.18025500  1
  H  192  1  0.24555350  0.72975650  0.20499200  1
  H  193  1  0.18892750  0.68452850  0.25884500  1
  H  194  1  0.11635300  0.62232600  0.23441300  1
  H  201  1  0.48053000  0.96750500  0.05429700  1
  H  205  1  0.41169700  0.87125400  0.93174600  1
  H  206  1  0.45653150  0.79767350  0.93225900  1
  H  207  1  0.52361050  0.85348350  0.96189900  1
  H  208  1  0.56139150  0.93987150  0.91923800  1
  H  209  1  0.49460100  0.88440500  0.88935300  1
  H  216  1  0.39477600  0.44569000  0.01857700  1
  H  220  1  0.58010250  0.67198350  0.99661600  1
  H  221  1  0.53656150  0.71321050  0.95228800  1
  H  222  1  0.49114800  0.63105300  0.93169700  1
  H  223  1  0.59242700  0.63245400  0.92121400  1
  H  224  1  0.63853300  0.71483500  0.94151400  1
  H  231  1  0.00490850  0.51686550  0.07262000  1
  H  235  1  0.09602500  0.45260200  0.96622200  1
  H  236  1  0.18179850  0.56304650  0.94982700  1
  H  237  1  0.13369750  0.59897850  0.96799900  1
  H  238  1  0.04534700  0.53429000  0.92840700  1
  H  239  1  0.09304500  0.49817300  0.90993000  1
  H  246  1  0.52904950  0.03567650  0.55429700  1
  H  250  1  0.59784550  0.13193850  0.43174200  1
  H  251  1  0.55302950  0.20553450  0.43227200  1
  H  252  1  0.48596500  0.14973600  0.46192200  1
  H  253  1  0.44814750  0.06334250  0.41925900  1
  H  254  1  0.51492650  0.11880350  0.38936600  1
  H  261  1  0.61460900  0.55741800  0.51871000  1
  H  265  1  0.42943650  0.33114250  0.49655200  1
  H  266  1  0.47309550  0.29009450  0.45219000  1
  H  267  1  0.51848300  0.37231400  0.43166500  1
  H  268  1  0.41718000  0.37085600  0.42118200  1
  H  269  1  0.37109750  0.28841450  0.44142000  1
  H  276  1  0.00458550  0.48629250  0.57257600  1
  H  280  1  0.91347800  0.55050300  0.46615900  1
  H  281  1  0.82768800  0.44006300  0.44977500  1
  H  282  1  0.87577650  0.40412050  0.46795100  1
  H  283  1  0.96412450  0.46878250  0.42835200  1
  H  284  1  0.91643850  0.50490650  0.40987300  1
  N  168  1  0.62303550  0.33141850  0.76735500  1
  N  170  1  0.73206600  0.36232800  0.77010300  1
  N  183  1  0.38656850  0.67185050  0.26733900  1
  N  185  1  0.27752150  0.64087150  0.27007400  1
  N  198  1  0.51940150  0.03753850  0.01731800  1
  N  200  1  0.51092700  0.00388200  0.96076100  1
  N  213  1  0.46708300  0.43959000  0.99365400  1
  N  215  1  0.55088400  0.53427900  0.97065200  1
  N  228  1  0.93592350  0.46756450  0.03599000  1
  N  230  1  0.97117650  0.45055450  0.98346500  1
  N  243  1  0.49018950  0.96565050  0.51731600  1
  N  245  1  0.49863750  0.99931850  0.46076000  1
  N  258  1  0.54233900  0.56354700  0.49376000  1
  N  260  1  0.45862900  0.46889900  0.47066400  1
  N  273  1  0.07357150  0.53556150  0.53594100  1
  N  275  1  0.03831850  0.55253950  0.48340500  1
  Si  7  1  0.66258100  0.32893100  0.93891400  1
  Si  48  1  0.34695650  0.67426350  0.43889700  1
  Si  89  1  0.32722100  0.65942400  0.06355700  1
  Si  130  1  0.68230600  0.34375200  0.56358300  1
