# generated using pymatgen
data_GdH32C44N(ClO3)3
_symmetry_space_group_name_H-M   'P 1'
_cell_length_a   12.38570000
_cell_length_b   18.42936000
_cell_length_c   24.64897000
_cell_angle_alpha   90.00000000
_cell_angle_beta   90.00000000
_cell_angle_gamma   109.51304000
_symmetry_Int_Tables_number   1
_chemical_formula_structural   GdH32C44N(ClO3)3
_chemical_formula_sum   'Gd4 H128 C176 N4 Cl12 O36'
_cell_volume   5303.23807201
_cell_formula_units_Z   4
loop_
 _symmetry_equiv_pos_site_id
 _symmetry_equiv_pos_as_xyz
  1  'x, y, z'
loop_
 _atom_site_type_symbol
 _atom_site_label
 _atom_site_symmetry_multiplicity
 _atom_site_fract_x
 _atom_site_fract_y
 _atom_site_fract_z
 _atom_site_occupancy
  Gd  Gd0  1  0.24382000  0.76962000  0.78700000  1
  Gd  Gd1  1  0.75616000  0.23037000  0.28699000  1
  Gd  Gd2  1  0.52373000  0.76960000  0.71293000  1
  Gd  Gd3  1  0.47627000  0.23040000  0.21293000  1
  H  H4  1  0.04589000  0.85902000  0.76644000  1
  H  H5  1  0.97548000  0.96305000  0.80143000  1
  H  H6  1  0.07859000  0.04404000  0.87928000  1
  H  H7  1  0.24895000  0.01813000  0.91911000  1
  H  H8  1  0.30811000  0.91209000  0.87962000  1
  H  H9  1  0.07708000  0.55464000  0.89501000  1
  H  H10  1  0.07111000  0.80756000  0.93325000  1
  H  H11  1  0.93112000  0.79259000  0.09422000  1
  H  H12  1  0.91131000  0.65483000  0.09906000  1
  H  H13  1  0.98996000  0.43470000  0.89860000  1
  H  H14  1  0.12378000  0.44868000  0.93145000  1
  H  H15  1  0.01442000  0.30801000  0.91497000  1
  H  H16  1  0.03332000  0.32721000  0.98565000  1
  H  H17  1  0.89856000  0.31532000  0.95443000  1
  H  H18  1  0.67878000  0.36402000  0.09233000  1
  H  H19  1  0.93166000  0.43705000  0.24557000  1
  H  H20  1  0.19721000  0.64288000  0.19419000  1
  H  H21  1  0.10989000  0.63124000  0.10290000  1
  H  H22  1  0.73182000  0.34112000  0.00490000  1
  H  H23  1  0.60861000  0.37010000  0.99870000  1
  H  H24  1  0.66247000  0.33461000  0.90689000  1
  H  H25  1  0.68877000  0.43546000  0.90902000  1
  H  H26  1  0.80451000  0.39939000  0.91522000  1
  H  H27  1  0.41873000  0.83258000  0.90716000  1
  H  H28  1  0.73716000  0.97652000  0.79493000  1
  H  H29  1  0.94025000  0.15858000  0.89914000  1
  H  H30  1  0.80894000  0.10473000  0.97578000  1
  H  H31  1  0.28878000  0.83587000  0.97095000  1
  H  H32  1  0.37099000  0.77790000  0.99005000  1
  H  H33  1  0.20805000  0.76099000  0.05514000  1
  H  H34  1  0.34195000  0.80327000  0.08915000  1
  H  H35  1  0.25876000  0.86100000  0.06956000  1
  H  H36  1  0.95412000  0.14098000  0.26644000  1
  H  H37  1  0.02452000  0.03695000  0.30143000  1
  H  H38  1  0.92141000  0.95596000  0.37928000  1
  H  H39  1  0.75105000  0.98188000  0.41911000  1
  H  H40  1  0.69189000  0.08792000  0.37962000  1
  H  H41  1  0.92292000  0.44537000  0.39501000  1
  H  H42  1  0.92888000  0.19245000  0.43325000  1
  H  H43  1  0.06888000  0.20741000  0.59422000  1
  H  H44  1  0.08869000  0.34517000  0.59906000  1
  H  H45  1  0.01004000  0.56530000  0.39860000  1
  H  H46  1  0.87622000  0.55132000  0.43145000  1
  H  H47  1  0.98559000  0.69200000  0.41497000  1
  H  H48  1  0.96668000  0.67279000  0.48565000  1
  H  H49  1  0.10144000  0.68468000  0.45443000  1
  H  H50  1  0.32122000  0.63598000  0.59233000  1
  H  H51  1  0.06834000  0.56295000  0.74557000  1
  H  H52  1  0.80278000  0.35712000  0.69419000  1
  H  H53  1  0.89010000  0.36876000  0.60290000  1
  H  H54  1  0.26817000  0.65888000  0.50490000  1
  H  H55  1  0.39139000  0.62990000  0.49870000  1
  H  H56  1  0.33753000  0.66539000  0.40689000  1
  H  H57  1  0.31123000  0.56455000  0.40902000  1
  H  H58  1  0.19549000  0.60061000  0.41522000  1
  H  H59  1  0.58127000  0.16742000  0.40716000  1
  H  H60  1  0.26285000  0.02349000  0.29493000  1
  H  H61  1  0.05975000  0.84142000  0.39915000  1
  H  H62  1  0.19106000  0.89527000  0.47578000  1
  H  H63  1  0.71122000  0.16413000  0.47095000  1
  H  H64  1  0.62901000  0.22210000  0.49005000  1
  H  H65  1  0.79195000  0.23901000  0.55514000  1
  H  H66  1  0.65805000  0.19673000  0.58915000  1
  H  H67  1  0.74124000  0.13900000  0.56956000  1
  H  H68  1  0.81012000  0.85807000  0.73349000  1
  H  H69  1  0.98462000  0.96154000  0.69862000  1
  H  H70  1  0.96319000  0.04239000  0.62036000  1
  H  H71  1  0.76719000  0.01750000  0.58061000  1
  H  H72  1  0.60199000  0.91203000  0.61998000  1
  H  H73  1  0.47730000  0.55571000  0.60479000  1
  H  H74  1  0.73756000  0.80846000  0.56707000  1
  H  H75  1  0.86139000  0.79305000  0.40595000  1
  H  H76  1  0.74436000  0.65520000  0.40136000  1
  H  H77  1  0.44462000  0.43559000  0.60165000  1
  H  H78  1  0.32607000  0.45043000  0.56803000  1
  H  H79  1  0.29359000  0.30922000  0.58478000  1
  H  H80  1  0.29452000  0.32895000  0.51420000  1
  H  H81  1  0.41689000  0.31620000  0.54544000  1
  H  H82  1  0.68459000  0.36330000  0.40853000  1
  H  H83  1  0.50523000  0.43762000  0.25482000  1
  H  H84  1  0.44627000  0.64387000  0.30682000  1
  H  H85  1  0.52235000  0.63178000  0.39795000  1
  H  H86  1  0.61218000  0.34162000  0.49496000  1
  H  H87  1  0.76396000  0.37097000  0.50221000  1
  H  H88  1  0.67085000  0.33383000  0.59314000  1
  H  H89  1  0.74525000  0.43461000  0.59218000  1
  H  H90  1  0.59395000  0.39899000  0.58447000  1
  H  H91  1  0.41295000  0.83100000  0.59258000  1
  H  H92  1  0.23822000  0.97597000  0.70482000  1
  H  H93  1  0.21856000  0.15860000  0.60048000  1
  H  H94  1  0.29515000  0.10395000  0.52385000  1
  H  H95  1  0.54806000  0.83580000  0.52913000  1
  H  H96  1  0.40793000  0.77729000  0.51088000  1
  H  H97  1  0.55309000  0.75921000  0.44586000  1
  H  H98  1  0.46001000  0.80004000  0.41148000  1
  H  H99  1  0.60078000  0.85878000  0.43003000  1
  H  H100  1  0.18987000  0.14193000  0.23349000  1
  H  H101  1  0.01538000  0.03846000  0.19861000  1
  H  H102  1  0.03681000  0.95761000  0.12036000  1
  H  H103  1  0.23281000  0.98250000  0.08061000  1
  H  H104  1  0.39801000  0.08797000  0.11998000  1
  H  H105  1  0.52269000  0.44429000  0.10479000  1
  H  H106  1  0.26243000  0.19154000  0.06707000  1
  H  H107  1  0.13861000  0.20696000  0.90595000  1
  H  H108  1  0.25564000  0.34480000  0.90136000  1
  H  H109  1  0.55538000  0.56441000  0.10165000  1
  H  H110  1  0.67393000  0.54957000  0.06803000  1
  H  H111  1  0.70641000  0.69078000  0.08478000  1
  H  H112  1  0.70548000  0.67105000  0.01420000  1
  H  H113  1  0.58310000  0.68380000  0.04543000  1
  H  H114  1  0.31541000  0.63670000  0.90853000  1
  H  H115  1  0.49477000  0.56238000  0.75482000  1
  H  H116  1  0.55373000  0.35613000  0.80682000  1
  H  H117  1  0.47765000  0.36822000  0.89795000  1
  H  H118  1  0.38782000  0.65839000  0.99496000  1
  H  H119  1  0.23603000  0.62903000  0.00221000  1
  H  H120  1  0.32914000  0.66617000  0.09314000  1
  H  H121  1  0.25475000  0.56539000  0.09218000  1
  H  H122  1  0.40605000  0.60101000  0.08446000  1
  H  H123  1  0.58705000  0.16900000  0.09258000  1
  H  H124  1  0.76178000  0.02403000  0.20482000  1
  H  H125  1  0.78144000  0.84140000  0.10048000  1
  H  H126  1  0.70484000  0.89605000  0.02385000  1
  H  H127  1  0.45193000  0.16420000  0.02913000  1
  H  H128  1  0.59206000  0.22271000  0.01088000  1
  H  H129  1  0.44691000  0.24079000  0.94586000  1
  H  H130  1  0.53998000  0.19996000  0.91148000  1
  H  H131  1  0.39922000  0.14123000  0.93003000  1
  C  C132  1  0.08797000  0.89531000  0.80042000  1
  C  C133  1  0.04936000  0.95331000  0.81973000  1
  C  C134  1  0.10726000  0.99874000  0.86293000  1
  C  C135  1  0.20197000  0.98452000  0.88511000  1
  C  C136  1  0.23496000  0.92528000  0.86347000  1
  C  C137  1  0.97150000  0.57102000  0.02154000  1
  C  C138  1  0.00655000  0.53734000  0.97678000  1
  C  C139  1  0.05061000  0.58104000  0.92964000  1
  C  C140  1  0.06373000  0.65848000  0.92740000  1
  C  C141  1  0.02997000  0.69536000  0.97181000  1
  C  C142  1  0.03751000  0.77390000  0.96940000  1
  C  C143  1  0.00146000  0.80697000  0.01278000  1
  C  C144  1  0.95744000  0.76459000  0.06035000  1
  C  C145  1  0.94719000  0.68786000  0.06291000  1
  C  C146  1  0.98255000  0.65043000  0.01919000  1
  C  C147  1  0.12140000  0.70377000  0.87889000  1
  C  C148  1  0.03029000  0.42413000  0.93617000  1
  C  C149  1  0.99173000  0.33871000  0.94893000  1
  C  C150  1  0.91668000  0.52110000  0.06812000  1
  C  C151  1  0.81292000  0.46211000  0.05864000  1
  C  C152  1  0.76071000  0.40868000  0.09964000  1
  C  C153  1  0.81285000  0.41113000  0.14962000  1
  C  C154  1  0.91672000  0.47176000  0.16225000  1
  C  C155  1  0.96872000  0.47960000  0.21435000  1
  C  C156  1  0.06692000  0.54074000  0.22499000  1
  C  C157  1  0.11882000  0.59606000  0.18478000  1
  C  C158  1  0.06974000  0.58912000  0.13398000  1
  C  C159  1  0.96738000  0.52812000  0.12085000  1
  C  C160  1  0.75467000  0.34744000  0.18805000  1
  C  C161  1  0.69904000  0.38430000  0.98703000  1
  C  C162  1  0.71475000  0.38883000  0.92594000  1
  C  C163  1  0.61631000  0.98128000  0.97310000  1
  C  C164  1  0.51773000  0.91755000  0.96516000  1
  C  C165  1  0.49581000  0.88163000  0.91396000  1
  C  C166  1  0.57119000  0.90796000  0.87088000  1
  C  C167  1  0.67336000  0.97282000  0.87732000  1
  C  C168  1  0.75148000  0.00436000  0.83428000  1
  C  C169  1  0.84438000  0.07002000  0.84282000  1
  C  C170  1  0.86638000  0.10683000  0.89392000  1
  C  C171  1  0.79269000  0.07674000  0.93633000  1
  C  C172  1  0.69410000  0.01001000  0.92952000  1
  C  C173  1  0.53663000  0.86566000  0.81874000  1
  C  C174  1  0.34486000  0.82674000  0.00281000  1
  C  C175  1  0.28537000  0.81221000  0.05749000  1
  C  C176  1  0.91204000  0.10470000  0.30042000  1
  C  C177  1  0.95064000  0.04669000  0.31973000  1
  C  C178  1  0.89274000  0.00126000  0.36293000  1
  C  C179  1  0.79803000  0.01549000  0.38511000  1
  C  C180  1  0.76505000  0.07473000  0.36347000  1
  C  C181  1  0.02850000  0.42898000  0.52154000  1
  C  C182  1  0.99344000  0.46267000  0.47678000  1
  C  C183  1  0.94939000  0.41897000  0.42964000  1
  C  C184  1  0.93627000  0.34153000  0.42739000  1
  C  C185  1  0.97003000  0.30465000  0.47181000  1
  C  C186  1  0.96249000  0.22611000  0.46940000  1
  C  C187  1  0.99853000  0.19304000  0.51278000  1
  C  C188  1  0.04255000  0.23541000  0.56035000  1
  C  C189  1  0.05280000  0.31214000  0.56291000  1
  C  C190  1  0.01745000  0.34957000  0.51919000  1
  C  C191  1  0.87858000  0.29623000  0.37889000  1
  C  C192  1  0.96971000  0.57587000  0.43617000  1
  C  C193  1  0.00827000  0.66130000  0.44893000  1
  C  C194  1  0.08332000  0.47890000  0.56812000  1
  C  C195  1  0.18708000  0.53790000  0.55865000  1
  C  C196  1  0.23928000  0.59132000  0.59964000  1
  C  C197  1  0.18715000  0.58887000  0.64962000  1
  C  C198  1  0.08328000  0.52825000  0.66225000  1
  C  C199  1  0.03128000  0.52040000  0.71435000  1
  C  C200  1  0.93308000  0.45926000  0.72499000  1
  C  C201  1  0.88118000  0.40395000  0.68479000  1
  C  C202  1  0.93026000  0.41088000  0.63398000  1
  C  C203  1  0.03261000  0.47188000  0.62086000  1
  C  C204  1  0.24533000  0.65256000  0.68805000  1
  C  C205  1  0.30096000  0.61570000  0.48703000  1
  C  C206  1  0.28525000  0.61118000  0.42594000  1
  C  C207  1  0.38369000  0.01873000  0.47310000  1
  C  C208  1  0.48227000  0.08245000  0.46516000  1
  C  C209  1  0.50419000  0.11837000  0.41396000  1
  C  C210  1  0.42881000  0.09204000  0.37088000  1
  C  C211  1  0.32664000  0.02718000  0.37732000  1
  C  C212  1  0.24852000  0.99564000  0.33428000  1
  C  C213  1  0.15562000  0.92999000  0.34282000  1
  C  C214  1  0.13362000  0.89318000  0.39392000  1
  C  C215  1  0.20731000  0.92326000  0.43633000  1
  C  C216  1  0.30590000  0.99000000  0.42952000  1
  C  C217  1  0.46337000  0.13434000  0.31874000  1
  C  C218  1  0.65514000  0.17326000  0.50281000  1
  C  C219  1  0.71462000  0.18779000  0.55749000  1
  C  C220  1  0.80462000  0.89428000  0.69936000  1
  C  C221  1  0.90129000  0.95201000  0.68011000  1
  C  C222  1  0.88915000  0.99741000  0.63676000  1
  C  C223  1  0.78043000  0.98367000  0.61456000  1
  C  C224  1  0.68814000  0.92471000  0.63616000  1
  C  C225  1  0.60100000  0.57165000  0.47878000  1
  C  C226  1  0.53195000  0.53798000  0.52338000  1
  C  C227  1  0.53079000  0.58186000  0.57033000  1
  C  C228  1  0.59519000  0.65917000  0.57278000  1
  C  C229  1  0.66666667  0.69602000  0.52864000  1
  C  C230  1  0.73754000  0.77453000  0.53103000  1
  C  C231  1  0.80628000  0.80750000  0.48755000  1
  C  C232  1  0.80783000  0.76504000  0.43999000  1
  C  C233  1  0.74181000  0.68832000  0.43752000  1
  C  C234  1  0.66928000  0.65099000  0.48127000  1
  C  C235  1  0.58152000  0.70404000  0.62131000  1
  C  C236  1  0.39456000  0.42526000  0.56383000  1
  C  C237  1  0.34732000  0.33991000  0.55098000  1
  C  C238  1  0.60568000  0.52155000  0.43224000  1
  C  C239  1  0.65029000  0.46236000  0.44174000  1
  C  C240  1  0.64823000  0.40847000  0.40085000  1
  C  C241  1  0.59887000  0.41117000  0.35076000  1
  C  C242  1  0.55537000  0.47194000  0.33821000  1
  C  C243  1  0.51083000  0.48004000  0.28620000  1
  C  C244  1  0.47381000  0.54146000  0.27580000  1
  C  C245  1  0.47732000  0.59668000  0.31614000  1
  C  C246  1  0.51974000  0.58954000  0.36683000  1
  C  C247  1  0.56116000  0.52833000  0.37967000  1
  C  C248  1  0.59403000  0.34762000  0.31210000  1
  C  C249  1  0.68711000  0.38483000  0.51336000  1
  C  C250  1  0.67353000  0.38847000  0.57437000  1
  C  C251  1  0.36434000  0.98028000  0.52675000  1
  C  C252  1  0.39942000  0.91655000  0.53487000  1
  C  C253  1  0.38450000  0.88007000  0.58598000  1
  C  C254  1  0.33416000  0.90613000  0.62881000  1
  C  C255  1  0.29803000  0.97167000  0.62234000  1
  C  C256  1  0.25201000  0.00369000  0.66540000  1
  C  C257  1  0.22575000  0.06987000  0.65690000  1
  C  C258  1  0.24061000  0.10670000  0.60580000  1
  C  C259  1  0.28368000  0.07619000  0.56338000  1
  C  C260  1  0.31512000  0.00914000  0.57022000  1
  C  C261  1  0.32294000  0.86344000  0.68103000  1
  C  C262  1  0.48230000  0.82594000  0.49752000  1
  C  C263  1  0.52619000  0.81018000  0.44288000  1
  C  C264  1  0.19538000  0.10572000  0.19936000  1
  C  C265  1  0.09870000  0.04799000  0.18011000  1
  C  C266  1  0.11084000  0.00259000  0.13676000  1
  C  C267  1  0.21957000  0.01633000  0.11456000  1
  C  C268  1  0.31185000  0.07529000  0.13616000  1
  C  C269  1  0.39900000  0.42835000  0.97878000  1
  C  C270  1  0.46804000  0.46202000  0.02337000  1
  C  C271  1  0.46921000  0.41814000  0.07033000  1
  C  C272  1  0.40480000  0.34083000  0.07277000  1
  C  C273  1  0.33338000  0.30398000  0.02864000  1
  C  C274  1  0.26245000  0.22547000  0.03103000  1
  C  C275  1  0.19372000  0.19250000  0.98755000  1
  C  C276  1  0.19217000  0.23496000  0.93999000  1
  C  C277  1  0.25819000  0.31169000  0.93752000  1
  C  C278  1  0.33072000  0.34901000  0.98127000  1
  C  C279  1  0.41848000  0.29597000  0.12131000  1
  C  C280  1  0.60544000  0.57474000  0.06383000  1
  C  C281  1  0.65268000  0.66009000  0.05098000  1
  C  C282  1  0.39432000  0.47846000  0.93224000  1
  C  C283  1  0.34971000  0.53764000  0.94174000  1
  C  C284  1  0.35177000  0.59153000  0.90085000  1
  C  C285  1  0.40113000  0.58883000  0.85076000  1
  C  C286  1  0.44463000  0.52806000  0.83821000  1
  C  C287  1  0.48917000  0.51996000  0.78620000  1
  C  C288  1  0.52619000  0.45855000  0.77580000  1
  C  C289  1  0.52268000  0.40333000  0.81614000  1
  C  C290  1  0.48026000  0.41047000  0.86683000  1
  C  C291  1  0.43883000  0.47168000  0.87967000  1
  C  C292  1  0.40596000  0.65238000  0.81210000  1
  C  C293  1  0.31288000  0.61517000  0.01336000  1
  C  C294  1  0.32647000  0.61153000  0.07437000  1
  C  C295  1  0.63566000  0.01972000  0.02675000  1
  C  C296  1  0.60058000  0.08345000  0.03487000  1
  C  C297  1  0.61549000  0.11993000  0.08598000  1
  C  C298  1  0.66584000  0.09387000  0.12881000  1
  C  C299  1  0.70197000  0.02833000  0.12234000  1
  C  C300  1  0.74799000  0.99631000  0.16540000  1
  C  C301  1  0.77424000  0.93013000  0.15690000  1
  C  C302  1  0.75939000  0.89330000  0.10580000  1
  C  C303  1  0.71632000  0.92381000  0.06338000  1
  C  C304  1  0.68487000  0.99086000  0.07022000  1
  C  C305  1  0.67706000  0.13657000  0.18103000  1
  C  C306  1  0.51770000  0.17407000  0.99752000  1
  C  C307  1  0.47381000  0.18983000  0.94288000  1
  N  N308  1  0.17898000  0.88077000  0.82187000  1
  N  N309  1  0.82102000  0.11924000  0.32187000  1
  N  N310  1  0.69941000  0.88002000  0.67772000  1
  N  N311  1  0.30059000  0.11998000  0.17772000  1
  Cl  Cl312  1  0.00843000  0.90317000  0.00905000  1
  Cl  Cl313  1  0.13066000  0.55019000  0.28910000  1
  Cl  Cl314  1  0.93821000  0.10977000  0.78920000  1
  Cl  Cl315  1  0.99156000  0.09684000  0.50905000  1
  Cl  Cl316  1  0.86934000  0.44981000  0.78910000  1
  Cl  Cl317  1  0.06179000  0.89023000  0.28920000  1
  Cl  Cl318  1  0.89471000  0.90380000  0.49086000  1
  Cl  Cl319  1  0.42037000  0.55191000  0.21168000  1
  Cl  Cl320  1  0.17244000  0.11031000  0.71050000  1
  Cl  Cl321  1  0.10529000  0.09620000  0.99087000  1
  Cl  Cl322  1  0.57962000  0.44809000  0.71168000  1
  Cl  Cl323  1  0.82756000  0.88969000  0.21050000  1
  O  O324  1  0.21815000  0.75675000  0.88603000  1
  O  O325  1  0.07640000  0.68777000  0.83173000  1
  O  O326  1  0.99544000  0.46155000  0.98140000  1
  O  O327  1  0.64581000  0.32669000  0.19029000  1
  O  O328  1  0.81555000  0.31612000  0.21480000  1
  O  O329  1  0.76416000  0.45949000  0.00857000  1
  O  O330  1  0.42861000  0.83648000  0.80940000  1
  O  O331  1  0.61067000  0.85804000  0.78559000  1
  O  O332  1  0.44588000  0.89470000  0.00856000  1
  O  O333  1  0.78184000  0.24325000  0.38604000  1
  O  O334  1  0.92356000  0.31222000  0.33172000  1
  O  O335  1  0.00456000  0.53845000  0.48140000  1
  O  O336  1  0.35419000  0.67331000  0.69029000  1
  O  O337  1  0.18445000  0.68388000  0.71480000  1
  O  O338  1  0.23583000  0.54051000  0.50857000  1
  O  O339  1  0.57139000  0.16352000  0.30940000  1
  O  O340  1  0.38933000  0.14196000  0.28559000  1
  O  O341  1  0.55412000  0.10530000  0.50856000  1
  O  O342  1  0.53790000  0.75724000  0.61404000  1
  O  O343  1  0.60891000  0.68739000  0.66863000  1
  O  O344  1  0.46764000  0.46219000  0.51879000  1
  O  O345  1  0.68249000  0.32718000  0.30954000  1
  O  O346  1  0.50193000  0.31614000  0.28537000  1
  O  O347  1  0.69716000  0.46010000  0.49171000  1
  O  O348  1  0.40247000  0.83565000  0.69293000  1
  O  O349  1  0.23785000  0.85451000  0.71218000  1
  O  O350  1  0.44905000  0.89397000  0.49153000  1
  O  O351  1  0.46210000  0.24276000  0.11404000  1
  O  O352  1  0.39109000  0.31261000  0.16863000  1
  O  O353  1  0.53235000  0.53781000  0.01879000  1
  O  O354  1  0.31751000  0.67282000  0.80954000  1
  O  O355  1  0.49807000  0.68386000  0.78537000  1
  O  O356  1  0.30285000  0.53990000  0.99171000  1
  O  O357  1  0.59753000  0.16435000  0.19293000  1
  O  O358  1  0.76216000  0.14550000  0.21218000  1
  O  O359  1  0.55095000  0.10604000  0.99153000  1
