# generated using pymatgen
data_CoH2(CO2)2
_symmetry_space_group_name_H-M   'P 1'
_cell_length_a   15.20500000
_cell_length_b   18.00500000
_cell_length_c   21.50000000
_cell_angle_alpha   71.21000000
_cell_angle_beta   84.47000000
_cell_angle_gamma   67.15000000
_symmetry_Int_Tables_number   1
_chemical_formula_structural   CoH2(CO2)2
_chemical_formula_sum   'Co36 H72 C72 O144'
_cell_volume   5132.21144383
_cell_formula_units_Z   36
loop_
 _symmetry_equiv_pos_site_id
 _symmetry_equiv_pos_as_xyz
  1  'x, y, z'
loop_
 _atom_site_type_symbol
 _atom_site_label
 _atom_site_symmetry_multiplicity
 _atom_site_fract_x
 _atom_site_fract_y
 _atom_site_fract_z
 _atom_site_occupancy
  Co  Co1  1  0.52463000  0.63577000  0.73048000  1.0
  Co  Co2  1  0.23781000  0.34905000  0.51690000  1.0
  Co  Co3  1  0.14182000  0.03117000  0.60305000  1.0
  Co  Co4  1  0.21963000  0.17517000  0.52077000  1.0
  Co  Co5  1  0.63672000  0.59260000  0.60374000  1.0
  Co  Co6  1  0.90477000  0.01579000  0.85030000  1.0
  Co  Co7  1  0.69684000  0.74029000  0.06311000  1.0
  Co  Co8  1  0.80882000  0.69777000  0.93635000  1.0
  Co  Co9  1  0.44693000  0.49087000  0.81228000  1.0
  Co  Co10  1  0.88610000  0.84225000  0.85437000  1.0
  Co  Co11  1  0.02982000  0.07364000  0.72977000  1.0
  Co  Co12  1  0.57117000  0.68248000  0.18358000  1.0
  Co  Co13  1  0.33370000  0.33328000  0.66666667  1.0
  Co  Co14  1  0.33350000  0.83340000  0.66690000  1.0
  Co  Co15  1  0.66666667  0.66666667  0.83316000  1.0
  Co  Co16  1  0.66640000  0.16668000  0.83342000  1.0
  Co  Co17  1  0.47537000  0.36423000  0.26952000  1.0
  Co  Co18  1  0.76219000  0.65095000  0.48310000  1.0
  Co  Co19  1  0.85818000  0.96883000  0.39695000  1.0
  Co  Co20  1  0.78037000  0.82483000  0.47923000  1.0
  Co  Co21  1  0.36328000  0.40740000  0.39626000  1.0
  Co  Co22  1  0.09523000  0.98421000  0.14970000  1.0
  Co  Co23  1  0.30316000  0.25971000  0.93689000  1.0
  Co  Co24  1  0.19118000  0.30223000  0.06365000  1.0
  Co  Co25  1  0.55307000  0.50913000  0.18772000  1.0
  Co  Co26  1  0.11390000  0.15775000  0.14563000  1.0
  Co  Co27  1  0.97018000  0.92636000  0.27023000  1.0
  Co  Co28  1  0.42883000  0.31752000  0.81642000  1.0
  Co  Co29  1  0.66630000  0.66666667  0.33333333  1.0
  Co  Co30  1  0.66650000  0.16660000  0.33310000  1.0
  Co  Co31  1  0.33333333  0.33337000  0.16684000  1.0
  Co  Co32  1  0.33360000  0.83332000  0.16658000  1.0
  Co  Co33  1  0.00000000  0.00000000  0.00000000  1.0
  Co  Co34  1  0.00000000  0.50000000  0.00000000  1.0
  Co  Co35  1  0.00000000  0.00000000  0.50000000  1.0
  Co  Co36  1  0.00000000  0.50000000  0.50000000  1.0
  H  H1  1  0.78970000  0.61110000  0.67740000  1.0
  H  H2  1  0.58380000  0.55140000  0.91780000  1.0
  H  H3  1  0.74840000  0.78310000  0.75070000  1.0
  H  H4  1  0.60830000  0.35080000  0.90750000  1.0
  H  H5  1  0.18370000  0.80120000  0.62080000  1.0
  H  H6  1  0.42390000  0.68580000  0.55710000  1.0
  H  H7  1  0.35420000  0.53720000  0.67660000  1.0
  H  H8  1  0.71440000  0.99180000  0.75920000  1.0
  H  H9  1  0.93500000  0.31740000  0.11430000  1.0
  H  H10  1  0.48530000  0.86270000  0.71820000  1.0
  H  H11  1  0.54420000  0.72730000  0.98630000  1.0
  H  H12  1  0.84230000  0.46550000  0.96280000  1.0
  H  H13  1  0.31380000  0.12970000  0.65890000  1.0
  H  H14  1  0.60940000  0.23250000  0.69730000  1.0
  H  H15  1  0.75460000  0.55210000  0.07930000  1.0
  H  H16  1  0.40060000  0.01170000  0.53900000  1.0
  H  H17  1  0.83870000  0.23460000  0.70670000  1.0
  H  H18  1  0.24740000  0.96920000  0.78070000  1.0
  H  H19  1  0.71690000  0.93740000  0.93260000  1.0
  H  H20  1  0.72260000  0.10620000  0.97170000  1.0
  H  H21  1  0.61190000  0.39990000  0.73160000  1.0
  H  H22  1  0.05690000  0.43670000  0.64010000  1.0
  H  H23  1  0.17700000  0.56570000  0.37890000  1.0
  H  H24  1  0.08750000  0.88140000  0.75050000  1.0
  H  H25  1  0.49630000  0.09780000  0.95740000  1.0
  H  H26  1  0.04750000  0.26980000  0.59680000  1.0
  H  H27  1  0.90570000  0.64530000  0.11170000  1.0
  H  H28  1  0.26230000  0.65950000  0.78310000  1.0
  H  H29  1  0.43290000  0.21070000  0.42100000  1.0
  H  H30  1  0.02130000  0.20510000  0.00850000  1.0
  H  H31  1  0.11090000  0.06530000  0.89730000  1.0
  H  H32  1  0.22650000  0.26080000  0.77180000  1.0
  H  H33  1  0.43520000  0.41030000  0.55980000  1.0
  H  H34  1  0.07340000  0.12150000  0.41810000  1.0
  H  H35  1  0.04730000  0.31480000  0.43050000  1.0
  H  H36  1  0.88070000  0.05200000  0.65430000  1.0
  H  H37  1  0.21030000  0.38890000  0.32260000  1.0
  H  H38  1  0.41620000  0.44860000  0.08220000  1.0
  H  H39  1  0.25160000  0.21690000  0.24930000  1.0
  H  H40  1  0.39170000  0.64920000  0.09250000  1.0
  H  H41  1  0.81630000  0.19880000  0.37920000  1.0
  H  H42  1  0.57610000  0.31420000  0.44290000  1.0
  H  H43  1  0.64580000  0.46280000  0.32340000  1.0
  H  H44  1  0.28560000  0.00820000  0.24080000  1.0
  H  H45  1  0.06500000  0.68260000  0.88570000  1.0
  H  H46  1  0.51470000  0.13730000  0.28180000  1.0
  H  H47  1  0.45580000  0.27270000  0.01370000  1.0
  H  H48  1  0.15770000  0.53450000  0.03720000  1.0
  H  H49  1  0.68620000  0.87030000  0.34110000  1.0
  H  H50  1  0.39060000  0.76750000  0.30270000  1.0
  H  H51  1  0.24540000  0.44790000  0.92070000  1.0
  H  H52  1  0.59940000  0.98830000  0.46100000  1.0
  H  H53  1  0.16130000  0.76540000  0.29330000  1.0
  H  H54  1  0.75260000  0.03080000  0.21930000  1.0
  H  H55  1  0.28310000  0.06260000  0.06740000  1.0
  H  H56  1  0.27740000  0.89380000  0.02830000  1.0
  H  H57  1  0.38810000  0.60010000  0.26840000  1.0
  H  H58  1  0.94310000  0.56330000  0.35990000  1.0
  H  H59  1  0.82300000  0.43430000  0.62110000  1.0
  H  H60  1  0.91250000  0.11860000  0.24950000  1.0
  H  H61  1  0.50370000  0.90220000  0.04260000  1.0
  H  H62  1  0.95250000  0.73020000  0.40320000  1.0
  H  H63  1  0.09430000  0.35470000  0.88830000  1.0
  H  H64  1  0.73770000  0.34050000  0.21690000  1.0
  H  H65  1  0.56710000  0.78930000  0.57900000  1.0
  H  H66  1  0.97870000  0.79490000  0.99150000  1.0
  H  H67  1  0.88910000  0.93470000  0.10270000  1.0
  H  H68  1  0.77350000  0.73920000  0.22820000  1.0
  H  H69  1  0.56480000  0.58970000  0.44020000  1.0
  H  H70  1  0.92660000  0.87850000  0.58190000  1.0
  H  H71  1  0.95270000  0.68520000  0.56950000  1.0
  H  H72  1  0.11930000  0.94800000  0.34570000  1.0
  C  C1  1  0.73890000  0.61940000  0.70560000  1.0
  C  C2  1  0.55800000  0.55520000  0.87890000  1.0
  C  C3  1  0.77470000  0.77880000  0.78960000  1.0
  C  C4  1  0.59290000  0.32180000  0.88420000  1.0
  C  C5  1  0.15450000  0.85990000  0.60420000  1.0
  C  C6  1  0.42540000  0.70040000  0.59470000  1.0
  C  C7  1  0.36100000  0.48080000  0.69440000  1.0
  C  C8  1  0.73410000  0.01850000  0.78250000  1.0
  C  C9  1  0.97980000  0.34030000  0.09470000  1.0
  C  C10  1  0.51650000  0.80400000  0.73160000  1.0
  C  C11  1  0.59630000  0.71500000  0.95960000  1.0
  C  C12  1  0.81890000  0.52360000  0.94150000  1.0
  C  C13  1  0.30680000  0.18620000  0.64090000  1.0
  C  C14  1  0.54850000  0.25600000  0.71230000  1.0
  C  C15  1  0.70620000  0.56170000  0.10920000  1.0
  C  C16  1  0.35930000  0.99040000  0.56670000  1.0
  C  C17  1  0.82510000  0.19680000  0.74360000  1.0
  C  C18  1  0.24520000  0.96100000  0.74040000  1.0
  C  C19  1  0.72630000  0.88050000  0.95120000  1.0
  C  C20  1  0.78290000  0.07960000  0.95740000  1.0
  C  C21  1  0.60490000  0.45650000  0.71420000  1.0
  C  C22  1  0.11730000  0.41240000  0.62480000  1.0
  C  C23  1  0.16150000  0.52680000  0.41380000  1.0
  C  C24  1  0.03760000  0.89240000  0.77910000  1.0
  C  C25  1  0.51010000  0.13640000  0.92130000  1.0
  C  C26  1  0.05880000  0.21260000  0.61650000  1.0
  C  C27  1  0.90490000  0.63330000  0.07280000  1.0
  C  C28  1  0.30860000  0.67970000  0.76210000  1.0
  C  C29  1  0.37800000  0.22390000  0.44520000  1.0
  C  C30  1  0.02750000  0.14880000  0.02650000  1.0
  C  C31  1  0.07060000  0.06220000  0.86910000  1.0
  C  C32  1  0.26480000  0.26790000  0.79900000  1.0
  C  C33  1  0.39970000  0.40000000  0.53300000  1.0
  C  C34  1  0.10540000  0.11290000  0.45610000  1.0
  C  C35  1  0.06730000  0.34540000  0.44960000  1.0
  C  C36  1  0.93020000  0.04600000  0.62500000  1.0
  C  C37  1  0.26110000  0.38060000  0.29440000  1.0
  C  C38  1  0.44200000  0.44480000  0.12110000  1.0
  C  C39  1  0.22530000  0.22120000  0.21040000  1.0
  C  C40  1  0.40710000  0.67820000  0.11580000  1.0
  C  C41  1  0.84550000  0.14010000  0.39580000  1.0
  C  C42  1  0.57460000  0.29960000  0.40530000  1.0
  C  C43  1  0.63900000  0.51920000  0.30560000  1.0
  C  C44  1  0.26590000  0.98150000  0.21750000  1.0
  C  C45  1  0.02020000  0.65970000  0.90530000  1.0
  C  C46  1  0.48350000  0.19600000  0.26840000  1.0
  C  C47  1  0.40370000  0.28500000  0.04040000  1.0
  C  C48  1  0.18110000  0.47640000  0.05850000  1.0
  C  C49  1  0.69320000  0.81380000  0.35910000  1.0
  C  C50  1  0.45150000  0.74400000  0.28770000  1.0
  C  C51  1  0.29380000  0.43830000  0.89080000  1.0
  C  C52  1  0.64070000  0.00960000  0.43330000  1.0
  C  C53  1  0.17490000  0.80320000  0.25640000  1.0
  C  C54  1  0.75480000  0.03900000  0.25960000  1.0
  C  C55  1  0.27370000  0.11950000  0.04880000  1.0
  C  C56  1  0.21710000  0.92040000  0.04260000  1.0
  C  C57  1  0.39510000  0.54350000  0.28580000  1.0
  C  C58  1  0.88270000  0.58760000  0.37520000  1.0
  C  C59  1  0.83850000  0.47320000  0.58620000  1.0
  C  C60  1  0.96240000  0.10760000  0.22090000  1.0
  C  C61  1  0.48990000  0.86360000  0.07870000  1.0
  C  C62  1  0.94120000  0.78740000  0.38350000  1.0
  C  C63  1  0.09510000  0.36670000  0.92720000  1.0
  C  C64  1  0.69140000  0.32030000  0.23790000  1.0
  C  C65  1  0.62200000  0.77610000  0.55480000  1.0
  C  C66  1  0.97250000  0.85120000  0.97350000  1.0
  C  C67  1  0.92940000  0.93780000  0.13090000  1.0
  C  C68  1  0.73520000  0.73210000  0.20100000  1.0
  C  C69  1  0.60030000  0.60000000  0.46700000  1.0
  C  C70  1  0.89460000  0.88710000  0.54390000  1.0
  C  C71  1  0.93270000  0.65460000  0.55040000  1.0
  C  C72  1  0.06980000  0.95400000  0.37500000  1.0
  O  O1  1  0.01330000  0.42030000  0.44500000  1.0
  O  O2  1  0.31140000  0.90670000  0.72840000  1.0
  O  O3  1  0.35440000  0.76240000  0.60200000  1.0
  O  O4  1  0.33050000  0.45190000  0.65970000  1.0
  O  O5  1  0.99700000  0.11810000  0.99400000  1.0
  O  O6  1  0.67920000  0.08730000  0.77910000  1.0
  O  O7  1  0.33690000  0.21450000  0.67550000  1.0
  O  O8  1  0.65240000  0.24890000  0.88830000  1.0
  O  O9  1  0.94850000  0.42010000  0.07030000  1.0
  O  O10  1  0.97600000  0.57220000  0.06190000  1.0
  O  O11  1  0.38890000  0.91360000  0.59680000  1.0
  O  O12  1  0.74990000  0.62960000  0.75770000  1.0
  O  O13  1  0.91300000  0.03710000  0.57510000  1.0
  O  O14  1  0.74940000  0.22330000  0.76710000  1.0
  O  O15  1  0.58210000  0.70190000  0.90820000  1.0
  O  O16  1  0.28110000  0.75520000  0.73780000  1.0
  O  O17  1  0.08280000  0.55540000  0.43500000  1.0
  O  O18  1  0.34620000  0.29520000  0.45620000  1.0
  O  O19  1  0.58560000  0.11120000  0.89870000  1.0
  O  O20  1  0.67150000  0.50380000  0.13350000  1.0
  O  O21  1  0.85190000  0.04630000  0.99740000  1.0
  O  O22  1  0.89040000  0.12150000  0.76370000  1.0
  O  O23  1  0.33850000  0.16920000  0.46570000  1.0
  O  O24  1  0.74910000  0.55370000  0.90200000  1.0
  O  O25  1  0.68970000  0.85800000  0.00680000  1.0
  O  O26  1  0.58650000  0.78040000  0.76310000  1.0
  O  O27  1  0.01500000  0.96220000  0.79060000  1.0
  O  O28  1  0.24840000  0.24840000  0.85800000  1.0
  O  O29  1  0.08100000  0.88900000  0.56780000  1.0
  O  O30  1  0.68060000  0.62920000  0.12220000  1.0
  O  O31  1  0.51130000  0.50990000  0.88240000  1.0
  O  O32  1  0.02140000  0.19280000  0.67080000  1.0
  O  O33  1  0.00420000  0.83650000  0.79960000  1.0
  O  O34  1  0.18570000  0.37990000  0.66400000  1.0
  O  O35  1  0.16940000  0.01080000  0.70310000  1.0
  O  O36  1  0.48170000  0.28740000  0.67060000  1.0
  O  O37  1  0.83380000  0.67830000  0.03410000  1.0
  O  O38  1  0.49880000  0.65530000  0.63260000  1.0
  O  O39  1  0.22530000  0.45400000  0.43070000  1.0
  O  O40  1  0.41780000  0.41740000  0.47530000  1.0
  O  O41  1  0.82030000  0.82260000  0.78530000  1.0
  O  O42  1  0.44340000  0.21260000  0.90150000  1.0
  O  O43  1  0.08510000  0.08400000  0.80950000  1.0
  O  O44  1  0.15500000  0.15600000  0.45190000  1.0
  O  O45  1  0.09520000  0.05820000  0.50850000  1.0
  O  O46  1  0.64310000  0.47590000  0.66200000  1.0
  O  O47  1  0.79050000  0.07920000  0.89680000  1.0
  O  O48  1  0.14800000  0.30980000  0.47940000  1.0
  O  O49  1  0.75940000  0.72770000  0.84190000  1.0
  O  O50  1  0.67120000  0.71340000  0.97890000  1.0
  O  O51  1  0.57250000  0.60590000  0.82600000  1.0
  O  O52  1  0.11040000  0.16220000  0.58620000  1.0
  O  O53  1  0.06840000  0.10640000  0.08540000  1.0
  O  O54  1  0.00740000  0.04850000  0.64460000  1.0
  O  O55  1  0.39350000  0.62170000  0.76370000  1.0
  O  O56  1  0.26760000  0.22350000  0.58410000  1.0
  O  O57  1  0.32860000  0.29710000  0.77010000  1.0
  O  O58  1  0.65960000  0.61960000  0.68820000  1.0
  O  O59  1  0.19320000  0.90270000  0.62090000  1.0
  O  O60  1  0.51680000  0.35910000  0.85310000  1.0
  O  O61  1  0.33830000  0.36920000  0.56220000  1.0
  O  O62  1  0.81620000  0.97300000  0.81250000  1.0
  O  O63  1  0.12300000  0.41520000  0.56410000  1.0
  O  O64  1  0.86060000  0.56700000  0.95470000  1.0
  O  O65  1  0.54430000  0.25200000  0.77180000  1.0
  O  O66  1  0.27470000  0.04230000  0.57170000  1.0
  O  O67  1  0.55770000  0.50440000  0.74670000  1.0
  O  O68  1  0.00390000  0.03580000  0.89500000  1.0
  O  O69  1  0.47270000  0.76620000  0.71130000  1.0
  O  O70  1  0.05910000  0.29120000  0.09570000  1.0
  O  O71  1  0.40040000  0.44210000  0.75110000  1.0
  O  O72  1  0.77610000  0.82820000  0.91900000  1.0
  O  O73  1  0.98670000  0.57970000  0.55500000  1.0
  O  O74  1  0.68860000  0.09330000  0.27160000  1.0
  O  O75  1  0.64560000  0.23760000  0.39800000  1.0
  O  O76  1  0.66950000  0.54810000  0.34030000  1.0
  O  O77  1  0.00300000  0.88190000  0.00600000  1.0
  O  O78  1  0.32080000  0.91270000  0.22090000  1.0
  O  O79  1  0.66310000  0.78550000  0.32450000  1.0
  O  O80  1  0.34760000  0.75110000  0.11170000  1.0
  O  O81  1  0.05150000  0.57990000  0.92970000  1.0
  O  O82  1  0.02400000  0.42780000  0.93810000  1.0
  O  O83  1  0.61110000  0.08640000  0.40320000  1.0
  O  O84  1  0.25010000  0.37040000  0.24230000  1.0
  O  O85  1  0.08700000  0.96290000  0.42490000  1.0
  O  O86  1  0.25060000  0.77670000  0.23290000  1.0
  O  O87  1  0.41790000  0.29810000  0.09180000  1.0
  O  O88  1  0.71890000  0.24480000  0.26220000  1.0
  O  O89  1  0.91720000  0.44460000  0.56500000  1.0
  O  O90  1  0.65380000  0.70480000  0.54380000  1.0
  O  O91  1  0.41440000  0.88880000  0.10130000  1.0
  O  O92  1  0.32850000  0.49620000  0.86650000  1.0
  O  O93  1  0.14810000  0.95370000  0.00260000  1.0
  O  O94  1  0.10960000  0.87850000  0.23630000  1.0
  O  O95  1  0.66150000  0.83080000  0.53430000  1.0
  O  O96  1  0.25090000  0.44630000  0.09800000  1.0
  O  O97  1  0.31030000  0.14200000  0.99320000  1.0
  O  O98  1  0.41350000  0.21960000  0.23690000  1.0
  O  O99  1  0.98500000  0.03780000  0.20940000  1.0
  O  O100  1  0.75160000  0.75160000  0.14200000  1.0
  O  O101  1  0.91900000  0.11100000  0.43220000  1.0
  O  O102  1  0.31940000  0.37080000  0.87780000  1.0
  O  O103  1  0.48870000  0.49010000  0.11760000  1.0
  O  O104  1  0.97860000  0.80720000  0.32920000  1.0
  O  O105  1  0.99580000  0.16350000  0.20040000  1.0
  O  O106  1  0.81430000  0.62010000  0.33600000  1.0
  O  O107  1  0.83060000  0.98920000  0.29690000  1.0
  O  O108  1  0.51830000  0.71260000  0.32940000  1.0
  O  O109  1  0.16620000  0.32170000  0.96590000  1.0
  O  O110  1  0.50120000  0.34470000  0.36740000  1.0
  O  O111  1  0.77470000  0.54600000  0.56930000  1.0
  O  O112  1  0.58220000  0.58260000  0.52470000  1.0
  O  O113  1  0.17970000  0.17740000  0.21470000  1.0
  O  O114  1  0.55660000  0.78740000  0.09850000  1.0
  O  O115  1  0.91490000  0.91600000  0.19050000  1.0
  O  O116  1  0.84500000  0.84400000  0.54810000  1.0
  O  O117  1  0.90480000  0.94180000  0.49150000  1.0
  O  O118  1  0.35690000  0.52410000  0.33800000  1.0
  O  O119  1  0.20950000  0.92080000  0.10320000  1.0
  O  O120  1  0.85200000  0.69020000  0.52060000  1.0
  O  O121  1  0.24060000  0.27230000  0.15810000  1.0
  O  O122  1  0.32880000  0.28660000  0.02110000  1.0
  O  O123  1  0.42750000  0.39410000  0.17400000  1.0
  O  O124  1  0.88960000  0.83780000  0.41380000  1.0
  O  O125  1  0.93160000  0.89360000  0.91460000  1.0
  O  O126  1  0.99260000  0.95150000  0.35540000  1.0
  O  O127  1  0.60650000  0.37830000  0.23630000  1.0
  O  O128  1  0.73240000  0.77650000  0.41590000  1.0
  O  O129  1  0.67140000  0.70290000  0.22990000  1.0
  O  O130  1  0.34040000  0.38040000  0.31180000  1.0
  O  O131  1  0.80680000  0.09730000  0.37910000  1.0
  O  O132  1  0.48320000  0.64090000  0.14690000  1.0
  O  O133  1  0.66170000  0.63080000  0.43780000  1.0
  O  O134  1  0.18380000  0.02700000  0.18750000  1.0
  O  O135  1  0.87700000  0.58480000  0.43590000  1.0
  O  O136  1  0.13940000  0.43300000  0.04530000  1.0
  O  O137  1  0.45570000  0.74800000  0.22820000  1.0
  O  O138  1  0.72530000  0.95770000  0.42830000  1.0
  O  O139  1  0.44230000  0.49560000  0.25330000  1.0
  O  O140  1  0.99610000  0.96420000  0.10500000  1.0
  O  O141  1  0.52730000  0.23380000  0.28870000  1.0
  O  O142  1  0.94090000  0.70880000  0.90430000  1.0
  O  O143  1  0.59960000  0.55790000  0.24890000  1.0
  O  O144  1  0.22390000  0.17180000  0.08100000  1.0
