# generated using pymatgen
data_ZnH12C15(NO2)2
_symmetry_space_group_name_H-M   'P 1'
_cell_length_a   12.30358000
_cell_length_b   20.11126000
_cell_length_c   20.11639000
_cell_angle_alpha   102.56551000
_cell_angle_beta   94.50882000
_cell_angle_gamma   94.53243000
_symmetry_Int_Tables_number   1
_chemical_formula_structural   ZnH12C15(NO2)2
_chemical_formula_sum   'Zn8 H96 C120 N16 O32'
_cell_volume   4819.65731320
_cell_formula_units_Z   8
loop_
 _symmetry_equiv_pos_site_id
 _symmetry_equiv_pos_as_xyz
  1  'x, y, z'
loop_
 _atom_site_type_symbol
 _atom_site_label
 _atom_site_symmetry_multiplicity
 _atom_site_fract_x
 _atom_site_fract_y
 _atom_site_fract_z
 _atom_site_occupancy
  Zn  Zn1  1  0.61580000  0.07489000  0.56404000  1.0
  Zn  Zn2  1  0.80602000  0.01855000  0.52728000  1.0
  Zn  Zn3  1  0.40655000  0.33506000  0.60751000  1.0
  Zn  Zn4  1  0.50469000  0.49058000  0.75640000  1.0
  Zn  Zn5  1  0.11461000  0.56400000  0.07505000  1.0
  Zn  Zn6  1  0.30470000  0.52725000  0.01849000  1.0
  Zn  Zn7  1  0.90751000  0.60738000  0.33501000  1.0
  Zn  Zn8  1  0.00450000  0.75616000  0.49027000  1.0
  H  H1  1  0.49671000  0.20009000  0.53691000  1.0
  H  H2  1  0.56371000  0.22090000  0.62162000  1.0
  H  H3  1  0.53755000  0.14435000  0.69767000  1.0
  H  H4  1  0.45324000  0.06544000  0.66860000  1.0
  H  H5  1  0.36211000  0.03597000  0.55352000  1.0
  H  H6  1  0.38202000  0.09248000  0.49722000  1.0
  H  H7  1  0.31170000  0.25131000  0.70413000  1.0
  H  H8  1  0.45645000  0.25043000  0.71852000  1.0
  H  H9  1  0.19758000  0.14473000  0.66427000  1.0
  H  H10  1  0.25766000  0.06549000  0.64807000  1.0
  H  H11  1  0.30144000  0.20014000  0.51793000  1.0
  H  H12  1  0.22173000  0.22164000  0.58897000  1.0
  H  H13  1  0.85732000  0.87293000  0.46882000  1.0
  H  H14  1  0.91268000  0.89251000  0.55584000  1.0
  H  H15  1  0.98361000  0.02876000  0.43000000  1.0
  H  H16  1  0.89813000  0.95098000  0.39619000  1.0
  H  H17  1  0.02929000  0.99810000  0.60218000  1.0
  H  H18  1  0.06075000  0.05557000  0.54852000  1.0
  H  H19  1  0.97575000  0.84334000  0.37854000  1.0
  H  H20  1  0.11877000  0.84068000  0.39926000  1.0
  H  H21  1  0.17676000  0.02573000  0.45946000  1.0
  H  H22  1  0.23368000  0.94509000  0.44587000  1.0
  H  H23  1  0.19484000  0.86773000  0.51806000  1.0
  H  H24  1  0.10727000  0.88956000  0.58448000  1.0
  H  H25  1  0.67071000  0.85637000  0.34584000  1.0
  H  H26  1  0.26507000  0.86156000  0.32088000  1.0
  H  H27  1  0.38410000  0.95013000  0.40876000  1.0
  H  H28  1  0.65440000  0.75587000  0.24720000  1.0
  H  H29  1  0.53567000  0.66747000  0.15832000  1.0
  H  H30  1  0.24770000  0.75543000  0.22726000  1.0
  H  H31  1  0.93081000  0.15375000  0.40517000  1.0
  H  H32  1  0.98388000  0.24975000  0.35021000  1.0
  H  H33  1  0.64094000  0.24695000  0.46716000  1.0
  H  H34  1  0.94767000  0.36187000  0.32402000  1.0
  H  H35  1  0.66986000  0.46091000  0.39822000  1.0
  H  H36  1  0.60773000  0.35987000  0.44412000  1.0
  H  H37  1  0.12176000  0.33560000  0.62847000  1.0
  H  H38  1  0.97437000  0.51146000  0.80424000  1.0
  H  H39  1  0.17468000  0.50803000  0.80049000  1.0
  H  H40  1  0.93105000  0.29033000  0.57820000  1.0
  H  H41  1  0.73103000  0.29487000  0.58070000  1.0
  H  H42  1  0.78295000  0.46382000  0.75621000  1.0
  H  H43  1  0.78721000  0.84879000  0.62504000  1.0
  H  H44  1  0.42935000  0.82683000  0.72293000  1.0
  H  H45  1  0.48196000  0.92792000  0.67499000  1.0
  H  H46  1  0.82847000  0.73707000  0.64698000  1.0
  H  H47  1  0.77415000  0.63396000  0.69217000  1.0
  H  H48  1  0.47220000  0.71496000  0.74691000  1.0
  H  H49  1  0.99654000  0.53693000  0.20009000  1.0
  H  H50  1  0.06353000  0.62164000  0.22082000  1.0
  H  H51  1  0.03743000  0.69769000  0.14438000  1.0
  H  H52  1  0.95317000  0.66869000  0.06550000  1.0
  H  H53  1  0.86191000  0.55357000  0.03603000  1.0
  H  H54  1  0.88178000  0.49723000  0.09251000  1.0
  H  H55  1  0.81161000  0.70418000  0.25135000  1.0
  H  H56  1  0.95640000  0.71857000  0.25041000  1.0
  H  H57  1  0.69744000  0.66431000  0.14478000  1.0
  H  H58  1  0.75761000  0.64810000  0.06555000  1.0
  H  H59  1  0.80120000  0.51789000  0.20013000  1.0
  H  H60  1  0.72157000  0.58892000  0.22173000  1.0
  H  H61  1  0.35694000  0.46887000  0.87308000  1.0
  H  H62  1  0.41234000  0.55590000  0.89255000  1.0
  H  H63  1  0.48330000  0.43006000  0.02879000  1.0
  H  H64  1  0.39771000  0.39626000  0.95108000  1.0
  H  H65  1  0.52909000  0.60227000  0.99812000  1.0
  H  H66  1  0.56053000  0.54856000  0.05555000  1.0
  H  H67  1  0.47537000  0.37853000  0.84335000  1.0
  H  H68  1  0.61838000  0.39931000  0.84070000  1.0
  H  H69  1  0.67645000  0.45948000  0.02562000  1.0
  H  H70  1  0.73329000  0.44587000  0.94496000  1.0
  H  H71  1  0.69445000  0.51802000  0.86765000  1.0
  H  H72  1  0.60702000  0.58451000  0.88951000  1.0
  H  H73  1  0.17130000  0.34554000  0.85612000  1.0
  H  H74  1  0.76574000  0.32147000  0.86208000  1.0
  H  H75  1  0.88534000  0.40906000  0.95042000  1.0
  H  H76  1  0.15474000  0.24737000  0.75600000  1.0
  H  H77  1  0.03572000  0.15844000  0.66756000  1.0
  H  H78  1  0.74792000  0.22740000  0.75562000  1.0
  H  H79  1  0.42959000  0.40534000  0.15360000  1.0
  H  H80  1  0.48364000  0.35067000  0.24959000  1.0
  H  H81  1  0.13994000  0.46685000  0.24742000  1.0
  H  H82  1  0.44765000  0.32397000  0.36168000  1.0
  H  H83  1  0.17033000  0.39834000  0.46125000  1.0
  H  H84  1  0.10752000  0.44400000  0.36019000  1.0
  H  H85  1  0.62195000  0.62852000  0.33597000  1.0
  H  H86  1  0.47434000  0.80444000  0.51164000  1.0
  H  H87  1  0.67474000  0.80052000  0.50826000  1.0
  H  H88  1  0.43140000  0.57823000  0.29050000  1.0
  H  H89  1  0.23118000  0.58079000  0.29492000  1.0
  H  H90  1  0.28314000  0.75641000  0.46389000  1.0
  H  H91  1  0.28620000  0.62488000  0.84931000  1.0
  H  H92  1  0.92914000  0.72327000  0.82629000  1.0
  H  H93  1  0.98049000  0.67534000  0.92748000  1.0
  H  H94  1  0.32858000  0.64669000  0.73779000  1.0
  H  H95  1  0.27573000  0.69189000  0.63453000  1.0
  H  H96  1  0.97312000  0.74707000  0.71441000  1.0
  C  C1  1  0.48897000  0.19620000  0.58981000  1.0
  C  C2  1  0.46229000  0.11951000  0.66642000  1.0
  C  C3  1  0.37244000  0.08975000  0.55032000  1.0
  C  C4  1  0.38206000  0.22472000  0.68666000  1.0
  C  C5  1  0.26882000  0.11958000  0.64593000  1.0
  C  C6  1  0.29214000  0.19544000  0.57055000  1.0
  C  C7  1  0.92914000  0.89653000  0.50410000  1.0
  C  C8  1  0.97074000  0.97449000  0.43103000  1.0
  C  C9  1  0.04659000  0.00157000  0.55031000  1.0
  C  C10  1  0.04757000  0.86793000  0.41366000  1.0
  C  C11  1  0.16168000  0.97153000  0.46054000  1.0
  C  C12  1  0.12347000  0.89476000  0.53289000  1.0
  C  C13  1  0.60156000  0.95885000  0.43921000  1.0
  C  C14  1  0.53407000  0.90743000  0.38294000  1.0
  C  C15  1  0.58226000  0.85729000  0.33972000  1.0
  C  C16  1  0.51796000  0.80711000  0.28829000  1.0
  C  C17  1  0.40088000  0.80761000  0.28204000  1.0
  C  C18  1  0.35361000  0.86021000  0.32647000  1.0
  C  C19  1  0.41863000  0.90903000  0.37509000  1.0
  C  C20  1  0.56560000  0.75577000  0.24260000  1.0
  C  C21  1  0.50096000  0.70714000  0.19373000  1.0
  C  C22  1  0.38506000  0.70665000  0.18805000  1.0
  C  C23  1  0.33651000  0.75615000  0.23180000  1.0
  C  C24  1  0.31785000  0.65167000  0.13503000  1.0
  C  C25  1  0.75569000  0.13848000  0.47513000  1.0
  C  C26  1  0.78299000  0.19503000  0.44004000  1.0
  C  C27  1  0.88027000  0.19582000  0.40623000  1.0
  C  C28  1  0.90930000  0.24885000  0.37590000  1.0
  C  C29  1  0.84365000  0.30437000  0.37871000  1.0
  C  C30  1  0.74529000  0.30386000  0.41273000  1.0
  C  C31  1  0.71619000  0.24781000  0.44213000  1.0
  C  C32  1  0.87389000  0.36090000  0.35044000  1.0
  C  C33  1  0.81280000  0.41665000  0.35812000  1.0
  C  C34  1  0.71581000  0.41631000  0.39228000  1.0
  C  C35  1  0.68195000  0.36072000  0.41796000  1.0
  C  C36  1  0.85468000  0.47819000  0.33384000  1.0
  C  C37  1  0.27973000  0.41732000  0.71335000  1.0
  C  C38  1  0.15944000  0.42020000  0.71479000  1.0
  C  C39  1  0.08844000  0.37318000  0.66699000  1.0
  C  C40  1  0.97367000  0.37464000  0.66666667  1.0
  C  C41  1  0.93148000  0.42486000  0.71803000  1.0
  C  C42  1  0.00633000  0.47289000  0.76594000  1.0
  C  C43  1  0.11768000  0.47111000  0.76409000  1.0
  C  C44  1  0.89910000  0.32792000  0.61744000  1.0
  C  C45  1  0.78783000  0.33030000  0.61865000  1.0
  C  C46  1  0.74583000  0.37903000  0.67007000  1.0
  C  C47  1  0.81657000  0.42535000  0.71874000  1.0
  C  C48  1  0.62541000  0.38134000  0.67060000  1.0
  C  C49  1  0.66595000  0.95358000  0.61575000  1.0
  C  C50  1  0.63822000  0.89435000  0.64730000  1.0
  C  C51  1  0.70946000  0.84413000  0.64674000  1.0
  C  C52  1  0.68183000  0.78579000  0.67294000  1.0
  C  C53  1  0.57901000  0.77968000  0.70136000  1.0
  C  C54  1  0.50770000  0.83216000  0.70195000  1.0
  C  C55  1  0.53636000  0.88796000  0.67541000  1.0
  C  C56  1  0.75204000  0.73252000  0.67038000  1.0
  C  C57  1  0.72197000  0.67550000  0.69479000  1.0
  C  C58  1  0.61969000  0.66893000  0.72237000  1.0
  C  C59  1  0.55041000  0.72056000  0.72603000  1.0
  C  C60  1  0.58290000  0.60423000  0.74207000  1.0
  C  C61  1  0.98873000  0.58984000  0.19619000  1.0
  C  C62  1  0.96210000  0.66651000  0.11955000  1.0
  C  C63  1  0.87217000  0.55034000  0.08979000  1.0
  C  C64  1  0.88196000  0.68672000  0.22475000  1.0
  C  C65  1  0.76868000  0.64598000  0.11963000  1.0
  C  C66  1  0.79197000  0.57057000  0.19550000  1.0
  C  C67  1  0.42876000  0.50417000  0.89664000  1.0
  C  C68  1  0.47033000  0.43111000  0.97455000  1.0
  C  C69  1  0.54629000  0.55038000  0.00157000  1.0
  C  C70  1  0.54714000  0.41369000  0.86793000  1.0
  C  C71  1  0.66132000  0.46056000  0.97145000  1.0
  C  C72  1  0.62315000  0.53291000  0.89474000  1.0
  C  C73  1  0.10302000  0.43903000  0.95875000  1.0
  C  C74  1  0.03509000  0.38292000  0.90750000  1.0
  C  C75  1  0.08287000  0.33964000  0.85726000  1.0
  C  C76  1  0.01824000  0.28837000  0.80716000  1.0
  C  C77  1  0.90116000  0.28227000  0.80777000  1.0
  C  C78  1  0.85425000  0.32682000  0.86050000  1.0
  C  C79  1  0.91963000  0.37531000  0.90927000  1.0
  C  C80  1  0.06594000  0.24274000  0.75587000  1.0
  C  C81  1  0.00129000  0.19389000  0.70731000  1.0
  C  C82  1  0.88547000  0.18819000  0.70695000  1.0
  C  C83  1  0.83675000  0.23198000  0.75636000  1.0
  C  C84  1  0.81879000  0.13498000  0.65198000  1.0
  C  C85  1  0.25379000  0.47495000  0.13859000  1.0
  C  C86  1  0.28174000  0.43992000  0.19509000  1.0
  C  C87  1  0.37924000  0.40632000  0.19575000  1.0
  C  C88  1  0.40881000  0.37611000  0.24878000  1.0
  C  C89  1  0.34345000  0.37878000  0.30443000  1.0
  C  C90  1  0.24495000  0.41265000  0.30405000  1.0
  C  C91  1  0.21531000  0.44194000  0.24805000  1.0
  C  C92  1  0.37393000  0.35045000  0.36089000  1.0
  C  C93  1  0.31303000  0.35812000  0.41671000  1.0
  C  C94  1  0.21609000  0.39238000  0.41657000  1.0
  C  C95  1  0.18185000  0.41795000  0.36103000  1.0
  C  C96  1  0.35449000  0.33378000  0.47830000  1.0
  C  C97  1  0.77971000  0.71325000  0.41728000  1.0
  C  C98  1  0.65939000  0.71482000  0.42036000  1.0
  C  C99  1  0.58839000  0.66701000  0.37342000  1.0
  C  C100  1  0.47367000  0.66677000  0.37487000  1.0
  C  C101  1  0.43160000  0.71815000  0.42507000  1.0
  C  C102  1  0.50637000  0.76607000  0.47316000  1.0
  C  C103  1  0.61771000  0.76415000  0.47135000  1.0
  C  C104  1  0.39925000  0.61747000  0.32804000  1.0
  C  C105  1  0.28799000  0.61877000  0.33035000  1.0
  C  C106  1  0.24611000  0.67032000  0.37906000  1.0
  C  C107  1  0.31677000  0.71895000  0.42544000  1.0
  C  C108  1  0.12577000  0.67082000  0.38131000  1.0
  C  C109  1  0.16454000  0.61580000  0.95362000  1.0
  C  C110  1  0.13700000  0.64735000  0.89436000  1.0
  C  C111  1  0.20861000  0.64668000  0.84434000  1.0
  C  C112  1  0.18165000  0.67290000  0.78594000  1.0
  C  C113  1  0.07905000  0.70144000  0.77950000  1.0
  C  C114  1  0.00730000  0.70214000  0.83180000  1.0
  C  C115  1  0.03531000  0.67560000  0.88770000  1.0
  C  C116  1  0.25235000  0.67024000  0.73293000  1.0
  C  C117  1  0.22305000  0.69470000  0.67583000  1.0
  C  C118  1  0.12097000  0.72244000  0.66888000  1.0
  C  C119  1  0.05122000  0.72615000  0.72029000  1.0
  C  C120  1  0.08468000  0.74210000  0.60401000  1.0
  N  N1  1  0.47557000  0.12292000  0.59342000  1.0
  N  N2  1  0.39319000  0.23160000  0.61449000  1.0
  N  N3  1  0.36744000  0.15310000  0.69067000  1.0
  N  N4  1  0.27676000  0.12350000  0.57387000  1.0
  N  N5  1  0.94730000  0.97007000  0.50228000  1.0
  N  N6  1  0.02629000  0.86027000  0.48436000  1.0
  N  N7  1  0.06696000  0.93980000  0.41121000  1.0
  N  N8  1  0.14347000  0.96688000  0.53126000  1.0
  N  N9  1  0.97519000  0.59347000  0.12296000  1.0
  N  N10  1  0.89306000  0.61453000  0.23161000  1.0
  N  N11  1  0.86729000  0.69074000  0.15315000  1.0
  N  N12  1  0.77655000  0.57389000  0.12357000  1.0
  N  N13  1  0.44691000  0.50239000  0.97017000  1.0
  N  N14  1  0.52591000  0.48441000  0.86033000  1.0
  N  N15  1  0.56652000  0.41125000  0.93979000  1.0
  N  N16  1  0.64320000  0.53132000  0.96685000  1.0
  O  O1  1  0.55034000  0.00421000  0.47538000  1.0
  O  O2  1  0.70399000  0.95301000  0.44774000  1.0
  O  O3  1  0.37086000  0.61208000  0.09375000  1.0
  O  O4  1  0.21381000  0.64774000  0.13501000  1.0
  O  O5  1  0.67099000  0.14174000  0.50814000  1.0
  O  O6  1  0.82014000  0.09116000  0.47095000  1.0
  O  O7  1  0.92594000  0.47491000  0.29222000  1.0
  O  O8  1  0.81467000  0.53538000  0.36042000  1.0
  O  O9  1  0.59549000  0.99694000  0.61564000  1.0
  O  O10  1  0.34182000  0.47117000  0.74315000  1.0
  O  O11  1  0.31286000  0.36058000  0.68382000  1.0
  O  O12  1  0.56648000  0.35415000  0.61437000  1.0
  O  O13  1  0.58698000  0.40772000  0.72654000  1.0
  O  O14  1  0.75719000  0.95603000  0.58974000  1.0
  O  O15  1  0.64471000  0.55538000  0.73701000  1.0
  O  O16  1  0.48650000  0.59609000  0.76144000  1.0
  O  O17  1  0.05223000  0.47534000  0.00415000  1.0
  O  O18  1  0.20551000  0.44744000  0.95280000  1.0
  O  O19  1  0.87234000  0.09401000  0.61234000  1.0
  O  O20  1  0.71469000  0.13469000  0.64828000  1.0
  O  O21  1  0.16899000  0.50784000  0.14196000  1.0
  O  O22  1  0.31799000  0.47087000  0.09114000  1.0
  O  O23  1  0.42183000  0.28968000  0.47484000  1.0
  O  O24  1  0.31772000  0.36324000  0.53566000  1.0
  O  O25  1  0.09426000  0.61578000  0.99704000  1.0
  O  O26  1  0.84149000  0.74277000  0.47136000  1.0
  O  O27  1  0.81353000  0.68395000  0.36064000  1.0
  O  O28  1  0.06741000  0.61435000  0.35425000  1.0
  O  O29  1  0.08653000  0.72660000  0.40744000  1.0
  O  O30  1  0.25570000  0.58969000  0.95599000  1.0
  O  O31  1  0.14654000  0.73698000  0.55528000  1.0
  O  O32  1  0.98821000  0.76148000  0.59581000  1.0
