# generated using pymatgen
data_H7C11N2
_symmetry_space_group_name_H-M   'P 1'
_cell_length_a   9.95166667
_cell_length_b   76.98125000
_cell_length_c   76.98120000
_cell_angle_alpha   119.99993554
_cell_angle_beta   90.00000000
_cell_angle_gamma   90.00000000
_symmetry_Int_Tables_number   1
_chemical_formula_structural   H7C11N2
_chemical_formula_sum   'H126 C198 N36'
_cell_volume   51073.58814481
_cell_formula_units_Z   18
loop_
 _symmetry_equiv_pos_site_id
 _symmetry_equiv_pos_as_xyz
  1  'x, y, z'
loop_
 _atom_site_type_symbol
 _atom_site_label
 _atom_site_symmetry_multiplicity
 _atom_site_fract_x
 _atom_site_fract_y
 _atom_site_fract_z
 _atom_site_occupancy
  C  1  1  0.99293000  0.90988600  0.43891100  1
  C  2  1  0.97316700  0.92078700  0.45985100  1
  C  3  1  0.95489900  0.90983200  0.46993400  1
  C  7  1  0.05068900  0.98219400  0.48335300  1
  C  8  1  0.95616100  0.97530000  0.49229400  1
  C  9  1  0.87697700  0.98989100  0.50820200  1
  C  12  1  0.94160600  0.95501500  0.48629000  1
  C  40  1  0.97511700  0.87758800  0.43826100  1
  C  41  1  0.99312800  0.88874800  0.42832100  1
  C  42  1  0.95594400  0.88868100  0.45933600  1
  C  44  1  0.98015600  0.85609300  0.42754600  1
  C  58  1  0.98720600  0.81301400  0.43700400  1
  C  59  1  0.01541800  0.81334900  0.37541300  1
  C  60  1  0.95172500  0.82085600  0.45741600  1
  C  61  1  0.95528200  0.81890100  0.36223000  1
  C  66  1  0.00262600  0.82520300  0.39662900  1
  C  68  1  0.98823100  0.82499400  0.42757600  1
  C  97  1  0.94619800  0.80841100  0.46604700  1
  C  98  1  0.97940300  0.78786300  0.45466500  1
  C  99  1  0.01400100  0.77992800  0.43430800  1
  C  100  1  0.01852800  0.79226000  0.42573000  1
  C  101  1  0.08205000  0.79457400  0.36682500  1
  C  102  1  0.08513900  0.78159900  0.34599100  1
  C  103  1  0.02010000  0.78678100  0.33297600  1
  C  104  1  0.95638800  0.80570200  0.34126900  1
  C  111  1  0.98718600  0.61795200  0.18209900  1
  C  112  1  0.97508300  0.55462400  0.11753700  1
  C  113  1  0.01532300  0.55604200  0.18179200  1
  C  114  1  0.99308100  0.53352300  0.10637900  1
  C  115  1  0.99289700  0.52297100  0.08524200  1
  C  116  1  0.97319300  0.53300800  0.07433600  1
  C  117  1  0.95487400  0.55404500  0.08528900  1
  C  118  1  0.95594900  0.56460300  0.10643900  1
  C  119  1  0.95174900  0.63051800  0.17425000  1
  C  120  1  0.94624900  0.65159400  0.18669000  1
  C  121  1  0.97945800  0.66076600  0.20723900  1
  C  122  1  0.01404500  0.64834700  0.21517800  1
  C  123  1  0.01854800  0.62743700  0.20285200  1
  C  124  1  0.08200000  0.56623300  0.20056200  1
  C  125  1  0.08497300  0.55839200  0.21355300  1
  C  126  1  0.01974900  0.54021200  0.20839100  1
  C  127  1  0.95608000  0.52957100  0.18946800  1
  C  128  1  0.95509100  0.53731500  0.17625200  1
  C  140  1  0.00259100  0.56539400  0.16992600  1
  C  142  1  0.98822600  0.59654400  0.17012400  1
  C  144  1  0.98013600  0.56540900  0.13903100  1
  C  150  1  0.98710100  0.55809600  0.37719600  1
  C  151  1  0.97511200  0.55684800  0.44051700  1
  C  152  1  0.01552700  0.61969100  0.43911600  1
  C  153  1  0.99317100  0.56678700  0.46161600  1
  C  154  1  0.99299100  0.55619700  0.47216400  1
  C  155  1  0.97322800  0.53525600  0.46212400  1
  C  156  1  0.95483800  0.52517700  0.44109000  1
  C  157  1  0.95591400  0.53577400  0.43053500  1
  C  158  1  0.95177500  0.53767700  0.36463000  1
  C  159  1  0.94624800  0.52903800  0.34355500  1
  C  160  1  0.97934200  0.54041700  0.33438100  1
  C  161  1  0.01376400  0.56078300  0.34679900  1
  C  162  1  0.01833100  0.56936700  0.36770800  1
  C  163  1  0.08222600  0.62827200  0.42892900  1
  C  164  1  0.08529100  0.64910500  0.43677900  1
  C  165  1  0.02004500  0.66212100  0.45495600  1
  C  166  1  0.95633600  0.65383600  0.46559200  1
  C  167  1  0.95536700  0.63287800  0.45784800  1
  C  179  1  0.00268100  0.59847500  0.42975600  1
  C  181  1  0.98819600  0.56752700  0.39860400  1
  C  183  1  0.98015700  0.56756200  0.42973500  1
  C  189  1  0.99528500  0.17938000  0.55997500  1
  C  190  1  0.97000300  0.11511000  0.55909800  1
  C  191  1  0.01095600  0.17945500  0.62183400  1
  C  192  1  0.95345200  0.10421300  0.56933300  1
  C  193  1  0.95007200  0.08307800  0.55893800  1
  C  194  1  0.96507900  0.07193300  0.53791400  1
  C  195  1  0.98001000  0.08263400  0.52751600  1
  C  196  1  0.98224700  0.10377900  0.53791600  1
  C  197  1  0.94942400  0.17203500  0.54007500  1
  C  198  1  0.94368500  0.18462400  0.53161400  1
  C  199  1  0.98758200  0.20473500  0.54256600  1
  C  200  1  0.03410300  0.21209700  0.56234900  1
  C  201  1  0.03857500  0.19964900  0.57079900  1
  C  202  1  0.07853300  0.19816100  0.63047700  1
  C  203  1  0.08135600  0.21112100  0.65131300  1
  C  204  1  0.01503500  0.20600100  0.66428100  1
  C  205  1  0.95025200  0.18715700  0.65594800  1
  C  206  1  0.94947300  0.17396600  0.63498200  1
  C  218  1  0.99971100  0.16753300  0.60059300  1
  C  220  1  0.99269300  0.16751700  0.56950200  1
  C  222  1  0.97722700  0.13658600  0.56972700  1
  C  228  1  0.99535500  0.37455900  0.81573700  1
  C  229  1  0.96992100  0.43793700  0.88001500  1
  C  230  1  0.01109200  0.43635800  0.81568800  1
  C  231  1  0.95334800  0.45906900  0.89091700  1
  C  232  1  0.94993500  0.46980400  0.91205200  1
  C  233  1  0.96489200  0.45991800  0.92319200  1
  C  234  1  0.97986600  0.43882100  0.91248500  1
  C  235  1  0.98215700  0.42808100  0.89134100  1
  C  236  1  0.94928200  0.36199900  0.82306200  1
  C  237  1  0.94352400  0.34095000  0.81046400  1
  C  238  1  0.98761300  0.33179800  0.79036200  1
  C  239  1  0.03440500  0.34422400  0.78302100  1
  C  240  1  0.03887100  0.36512100  0.79547800  1
  C  241  1  0.07880800  0.42631200  0.79699400  1
  C  242  1  0.08181300  0.43420900  0.78405100  1
  C  243  1  0.01547800  0.45229800  0.78917500  1
  C  244  1  0.95048300  0.46278400  0.80800500  1
  C  245  1  0.94964000  0.45500000  0.82118800  1
  C  257  1  0.99976800  0.42702900  0.82760100  1
  C  259  1  0.99273900  0.39594700  0.82760300  1
  C  261  1  0.97717700  0.42709700  0.85854100  1
  C  267  1  0.99559200  0.43516000  0.62060800  1
  C  268  1  0.96992600  0.43601900  0.55721200  1
  C  269  1  0.01082000  0.37328800  0.55883500  1
  C  270  1  0.95338200  0.42578200  0.53608000  1
  C  271  1  0.94996500  0.43617600  0.52533900  1
  C  272  1  0.96493300  0.45720000  0.53521500  1
  C  273  1  0.97988000  0.46759800  0.55631300  1
  C  274  1  0.98219100  0.45720200  0.56706000  1
  C  275  1  0.94931200  0.45503400  0.63316200  1
  C  276  1  0.94359400  0.46349000  0.65421200  1
  C  277  1  0.98798400  0.45256300  0.66337400  1
  C  278  1  0.03492700  0.43280400  0.65095000  1
  C  279  1  0.03938900  0.42435900  0.63005200  1
  C  280  1  0.07830200  0.36464100  0.56890300  1
  C  281  1  0.08111100  0.34380400  0.56102300  1
  C  282  1  0.01489900  0.33083600  0.54292400  1
  C  283  1  0.95017700  0.33917600  0.53241300  1
  C  284  1  0.94936200  0.36014200  0.54019500  1
  C  296  1  0.99967200  0.39453100  0.56815000  1
  C  298  1  0.99286900  0.42562700  0.59921900  1
  C  300  1  0.97718700  0.42539500  0.56806300  1
  C  306  1  0.06469100  0.00280300  0.48998500  1
  C  307  1  0.89094100  0.01049900  0.51482700  1
  C  308  1  0.98539700  0.01739800  0.50588000  1
  C  311  1  0.99999900  0.03769000  0.51189100  1
  C  313  1  0.06451600  0.48110700  0.99231800  1
  C  314  1  0.05057200  0.49508700  0.01292700  1
  C  315  1  0.95610500  0.51093100  0.01982300  1
  C  316  1  0.87692400  0.51225200  0.00523400  1
  C  317  1  0.89085100  0.49826900  0.98462700  1
  C  318  1  0.98523700  0.48241400  0.97772600  1
  C  323  1  0.99975200  0.46812700  0.95743300  1
  C  325  1  0.94159500  0.52521400  0.04010600  1
  C  327  1  0.06457900  0.50513000  0.51401600  1
  C  328  1  0.05060300  0.51176200  0.50003900  1
  C  329  1  0.95613500  0.50281600  0.48419600  1
  C  330  1  0.87697700  0.48690200  0.48287300  1
  C  331  1  0.89092900  0.48027500  0.49685300  1
  C  332  1  0.98532600  0.48922600  0.51270600  1
  C  337  1  0.99989733  0.48322300  0.52699500  1
  C  339  1  0.94159500  0.50881900  0.46991500  1
  C  341  1  0.87661600  0.73970700  0.26811100  1
  C  342  1  0.89922000  0.72037900  0.25160500  1
  C  343  1  0.03086400  0.71239900  0.24636400  1
  C  344  1  0.13916000  0.72476000  0.25783800  1
  C  345  1  0.11671700  0.74402200  0.27433600  1
  C  346  1  0.98481300  0.75163200  0.28001200  1
  C  351  1  0.96078200  0.76954200  0.29764300  1
  C  353  1  0.05556100  0.69235700  0.23226000  1
  C  355  1  0.87654500  0.52225700  0.25541100  1
  C  356  1  0.89920000  0.52506200  0.27473200  1
  C  357  1  0.03078700  0.52790600  0.28274800  1
  C  358  1  0.13903100  0.52712800  0.27042600  1
  C  359  1  0.11652200  0.52438600  0.25117200  1
  C  360  1  0.98463200  0.52235600  0.24353300  1
  C  365  1  0.96042200  0.52213800  0.22565800  1
  C  367  1  0.05548100  0.53384800  0.30279300  1
  C  369  1  0.87649000  0.72701300  0.47278800  1
  C  370  1  0.89906400  0.74351000  0.46994900  1
  C  371  1  0.03067200  0.74873100  0.46717500  1
  C  372  1  0.13898400  0.73723900  0.46802700  1
  C  373  1  0.11658200  0.72076300  0.47082900  1
  C  374  1  0.98468300  0.71509600  0.47278100  1
  C  379  1  0.96066800  0.69745200  0.47303600  1
  C  381  1  0.05533200  0.76280800  0.46120100  1
  C  383  1  0.87581300  0.25321200  0.72940900  1
  C  384  1  0.90081200  0.27240500  0.74599700  1
  C  385  1  0.03343400  0.27999800  0.75113300  1
  C  386  1  0.14017000  0.26737900  0.73945200  1
  C  387  1  0.11536700  0.24824000  0.72289500  1
  C  388  1  0.98254300  0.24102300  0.71734000  1
  C  393  1  0.95639800  0.22326600  0.69965400  1
  C  395  1  0.06095300  0.29989200  0.76543200  1
  C  397  1  0.87586200  0.47004600  0.74189600  1
  C  398  1  0.90089200  0.46743600  0.72270200  1
  C  399  1  0.03360500  0.46512000  0.71516800  1
  C  400  1  0.14035700  0.46620500  0.72784900  1
  C  401  1  0.11551000  0.46875500  0.74697400  1
  C  402  1  0.98264500  0.47027800  0.75413400  1
  C  407  1  0.95664900  0.47039600  0.77191800  1
  C  409  1  0.06125900  0.45955600  0.69528600  1
  C  411  1  0.87578700  0.26568000  0.52494200  1
  C  412  1  0.90082800  0.24908800  0.52753800  1
  C  413  1  0.03347000  0.24395100  0.52998700  1
  C  414  1  0.14019100  0.25562600  0.52903400  1
  C  415  1  0.11532100  0.27221400  0.52650500  1
  C  416  1  0.98247800  0.27777100  0.52485600  1
  C  421  1  0.95632100  0.29546400  0.52480100  1
  C  423  1  0.06106800  0.22964000  0.53556600  1
  H  4  1  0.94279100  0.91713700  0.48515100  1
  H  5  1  0.00770500  0.91731600  0.43113900  1
  H  10  1  0.80715500  0.98563100  0.51512400  1
  H  11  1  0.11132200  0.97226000  0.47195500  1
  H  13  1  0.89898500  0.95143700  0.49576300  1
  H  43  1  0.94325400  0.88147000  0.46734600  1
  H  45  1  0.00880600  0.88161600  0.41316600  1
  H  62  1  0.92644700  0.83565400  0.46610800  1
  H  63  1  0.91789200  0.81443800  0.48072300  1
  H  64  1  0.90852000  0.80984400  0.33215100  1
  H  65  1  0.90450200  0.83219300  0.36782700  1
  H  105  1  0.04440200  0.78562500  0.41090700  1
  H  106  1  0.03432900  0.76496000  0.42544000  1
  H  107  1  0.12816200  0.78992900  0.37568900  1
  H  108  1  0.13195200  0.76798500  0.34044800  1
  H  129  1  0.94284100  0.56195700  0.07798200  1
  H  130  1  0.94328200  0.57982400  0.11364800  1
  H  131  1  0.00765400  0.50777000  0.07781500  1
  H  132  1  0.04441800  0.61925300  0.20949200  1
  H  133  1  0.92646800  0.62440700  0.15945200  1
  H  134  1  0.91795700  0.66024000  0.18065800  1
  H  135  1  0.03439400  0.65445300  0.23014700  1
  H  136  1  0.12817200  0.57973600  0.20519600  1
  H  137  1  0.90800300  0.51633300  0.18534800  1
  H  138  1  0.90426500  0.52962000  0.16296500  1
  H  139  1  0.13168000  0.56647500  0.22717300  1
  H  146  1  0.00873000  0.52550300  0.11351600  1
  H  168  1  0.94275500  0.50995900  0.43317600  1
  H  169  1  0.94319300  0.52776500  0.41531400  1
  H  170  1  0.00779200  0.56396900  0.48736500  1
  H  171  1  0.04413100  0.58419300  0.37589200  1
  H  172  1  0.92656200  0.52898700  0.37074200  1
  H  173  1  0.91805200  0.51435600  0.33490900  1
  H  174  1  0.03410800  0.56964400  0.34069200  1
  H  175  1  0.12837400  0.61940300  0.41542400  1
  H  176  1  0.90827400  0.66295400  0.47883200  1
  H  177  1  0.90435500  0.62728700  0.46553100  1
  H  178  1  0.13205600  0.65464300  0.42870000  1
  H  185  1  0.00886600  0.58194300  0.46963800  1
  H  207  1  0.98866800  0.07514000  0.51224200  1
  H  208  1  0.99465200  0.11079800  0.52971700  1
  H  209  1  0.93805900  0.07582900  0.56693800  1
  H  210  1  0.07253500  0.20585500  0.58523600  1
  H  211  1  0.91470000  0.15764300  0.53180500  1
  H  212  1  0.90632400  0.17906200  0.51742500  1
  H  213  1  0.06230900  0.22678900  0.57097100  1
  H  214  1  0.12594300  0.20274900  0.62165900  1
  H  215  1  0.90149100  0.18306100  0.66503600  1
  H  216  1  0.89802400  0.16072500  0.62935500  1
  H  217  1  0.12909200  0.22467100  0.65689200  1
  H  224  1  0.94335900  0.11155200  0.58460000  1
  H  246  1  0.98856100  0.43103600  0.91997600  1
  H  247  1  0.99459800  0.41286400  0.88431900  1
  H  248  1  0.93791800  0.48505300  0.91930500  1
  H  249  1  0.07298500  0.37335700  0.78928400  1
  H  250  1  0.91437800  0.36811500  0.83744300  1
  H  251  1  0.90594800  0.33232000  0.81600800  1
  H  252  1  0.06270600  0.33815900  0.76833300  1
  H  253  1  0.12622800  0.41290600  0.79240300  1
  H  254  1  0.90183700  0.47598000  0.81211300  1
  H  255  1  0.89804500  0.46259600  0.83441600  1
  H  256  1  0.12971000  0.42625500  0.77051300  1
  H  263  1  0.94327400  0.46700000  0.88358100  1
  H  285  1  0.98856200  0.48287400  0.56409300  1
  H  286  1  0.99455800  0.46540300  0.58227800  1
  H  287  1  0.93801300  0.42817100  0.51008700  1
  H  288  1  0.07356900  0.40993200  0.62181700  1
  H  289  1  0.91417700  0.46328200  0.62704000  1
  H  290  1  0.90583200  0.47765300  0.66283700  1
  H  291  1  0.06337000  0.42419000  0.65701900  1
  H  292  1  0.12568000  0.37345700  0.58231400  1
  H  293  1  0.90162200  0.33008500  0.51921000  1
  H  294  1  0.89817400  0.36576900  0.53256200  1
  H  295  1  0.12880600  0.33822400  0.56899700  1
  H  302  1  0.94333300  0.41051500  0.52815400  1
  H  309  1  0.13455800  0.00705800  0.48306500  1
  H  310  1  0.83035600  0.02042700  0.52623400  1
  H  312  1  0.04554800  0.04127200  0.50261100  1
  H  319  1  0.80716100  0.52344100  0.00949500  1
  H  320  1  0.11119100  0.49361900  0.02285900  1
  H  321  1  0.13433700  0.46992500  0.98806000  1
  H  322  1  0.83026700  0.49975100  0.97470000  1
  H  324  1  0.04530800  0.45526500  0.95385100  1
  H  326  1  0.89910400  0.53827300  0.04368400  1
  H  333  1  0.80720600  0.47997400  0.47168300  1
  H  334  1  0.11119100  0.52316700  0.50151200  1
  H  335  1  0.13437200  0.51205900  0.52520100  1
  H  336  1  0.83035300  0.46886400  0.49537000  1
  H  338  1  0.04533700  0.49250800  0.53986000  1
  H  340  1  0.89906900  0.49934100  0.45685800  1
  H  347  1  0.23588400  0.71951800  0.25483900  1
  H  348  1  0.81760600  0.71179600  0.24411800  1
  H  349  1  0.77958800  0.74453700  0.27200400  1
  H  350  1  0.19763900  0.75213900  0.28265700  1
  H  352  1  0.88693600  0.77853700  0.29829400  1
  H  354  1  0.14250100  0.68646100  0.23325000  1
  H  361  1  0.23568300  0.52948400  0.27570400  1
  H  362  1  0.81761600  0.52607600  0.28328700  1
  H  363  1  0.77951700  0.52125400  0.25055900  1
  H  364  1  0.19734700  0.52471800  0.24310800  1
  H  366  1  0.88768400  0.51359800  0.21653800  1
  H  368  1  0.14238600  0.54074400  0.30869400  1
  H  375  1  0.23568700  0.74022000  0.46575400  1
  H  376  1  0.81744400  0.75100000  0.46886000  1
  H  377  1  0.77947700  0.72311300  0.47372100  1
  H  378  1  0.19747800  0.71240800  0.47056300  1
  H  380  1  0.88717300  0.69683900  0.48145300  1
  H  382  1  0.14228200  0.76182200  0.45431800  1
  H  389  1  0.23758700  0.27231900  0.74237000  1
  H  390  1  0.82025800  0.28115900  0.75366400  1
  H  391  1  0.77822600  0.24865000  0.72563000  1
  H  392  1  0.19528600  0.23994400  0.71442700  1
  H  394  1  0.88242900  0.21432700  0.69909100  1
  H  396  1  0.15081200  0.30536800  0.76494300  1
  H  403  1  0.23784400  0.46429600  0.72295300  1
  H  404  1  0.82035800  0.46623400  0.71390000  1
  H  405  1  0.77825000  0.47070500  0.74640200  1
  H  406  1  0.19550300  0.46872500  0.75533100  1
  H  408  1  0.88142900  0.47854600  0.78071200  1
  H  410  1  0.15116400  0.45360000  0.68982700  1
  H  417  1  0.23760200  0.25272600  0.53108000  1
  H  418  1  0.82030000  0.24142800  0.52864300  1
  H  419  1  0.77817500  0.26947400  0.52419700  1
  H  420  1  0.19523200  0.28068600  0.52668200  1
  H  422  1  0.88233400  0.29603500  0.51643100  1
  H  424  1  0.15081300  0.23016800  0.54157700  1
  N  6  1  0.97739400  0.94079700  0.46883400  1
  N  67  1  0.00011833  0.81567100  0.40736700  1
  N  69  1  0.97844900  0.84538200  0.43736700  1
  N  70  1  0.99165800  0.84553500  0.40709800  1
  N  109  1  0.02212000  0.77287300  0.31370100  1
  N  110  1  0.96810800  0.77571300  0.46229600  1
  N  141  1  0.00010233  0.58566200  0.17945200  1
  N  143  1  0.97844200  0.58594200  0.14973700  1
  N  145  1  0.99161700  0.55552200  0.14959400  1
  N  147  1  0.02144300  0.53489100  0.22233300  1
  N  148  1  0.96820300  0.68054700  0.21938300  1
  N  149  1  0.97735800  0.52197500  0.05432700  1
  N  180  1  0.00012533  0.58773700  0.40948800  1
  N  182  1  0.97840800  0.55773900  0.40920400  1
  N  184  1  0.99170800  0.58801000  0.43962500  1
  N  186  1  0.02193900  0.68139100  0.46030200  1
  N  187  1  0.96811500  0.53277800  0.31460000  1
  N  188  1  0.97739300  0.52627700  0.47315400  1
  N  219  1  0.00201800  0.17695400  0.58974400  1
  N  221  1  0.98036200  0.14717100  0.55978600  1
  N  223  1  0.98633700  0.14722200  0.59020100  1
  N  225  1  0.01761200  0.21986100  0.68356700  1
  N  226  1  0.97367100  0.21711100  0.53524100  1
  N  227  1  0.96082900  0.05193800  0.52913100  1
  N  258  1  0.00210300  0.40675800  0.81817100  1
  N  260  1  0.98033800  0.40657100  0.84794800  1
  N  262  1  0.98634200  0.43694000  0.84790900  1
  N  264  1  0.01837700  0.45776400  0.77534600  1
  N  265  1  0.97361900  0.31210100  0.77797300  1
  N  266  1  0.96065800  0.47112600  0.94318700  1
  N  297  1  0.00211400  0.40538300  0.58841900  1
  N  299  1  0.98045300  0.43533900  0.58858700  1
  N  301  1  0.98624200  0.40491900  0.55822900  1
  N  303  1  0.01753300  0.31155000  0.53749000  1
  N  304  1  0.97390000  0.45986000  0.68306700  1
  N  305  1  0.96072900  0.46597900  0.52399900  1
