# generated using pymatgen
data_H32C49(N2O)4
_symmetry_space_group_name_H-M   'P 1'
_cell_length_a   16.12732500
_cell_length_b   16.12730000
_cell_length_c   48.01420000
_cell_angle_alpha   89.95860000
_cell_angle_beta   89.97930010
_cell_angle_gamma   60.00015384
_symmetry_Int_Tables_number   1
_chemical_formula_structural   H32C49(N2O)4
_chemical_formula_sum   'H96 C147 N24 O12'
_cell_volume   10814.95935183
_cell_formula_units_Z   3
loop_
 _symmetry_equiv_pos_site_id
 _symmetry_equiv_pos_as_xyz
  1  'x, y, z'
loop_
 _atom_site_type_symbol
 _atom_site_label
 _atom_site_symmetry_multiplicity
 _atom_site_fract_x
 _atom_site_fract_y
 _atom_site_fract_z
 _atom_site_occupancy
  C  6  1  0.36893300  0.61337550  0.66830800  1
  C  10  1  0.81827300  0.18068550  0.73049800  1
  C  17  1  0.80660600  0.18405900  0.87280800  1
  C  18  1  0.87821800  0.10191900  0.78848500  1
  C  23  1  0.95070400  0.04601850  0.19741000  1
  C  25  1  0.15425200  0.82707850  0.94288400  1
  C  27  1  0.61610200  0.36271000  0.98715200  1
  C  28  1  0.02793800  0.94917700  0.67334200  1
  C  35  1  0.88110400  0.09304300  0.83910300  1
  C  45  1  0.88426700  0.12580550  0.61270600  1
  C  46  1  0.91754500  0.05101850  0.81277400  1
  C  47  1  0.92307300  0.04425550  0.86382900  1
  C  51  1  0.14964800  0.86832050  0.06268100  1
  C  55  1  0.00277000  0.95024950  0.86412500  1
  C  56  1  0.03723800  0.90708150  0.83780900  1
  C  57  1  0.99615600  0.95636050  0.81307900  1
  C  59  1  0.04881600  0.90309800  0.88831400  1
  C  61  1  0.90356400  0.04712100  0.22160500  1
  C  62  1  0.03058700  0.91734700  0.47944300  1
  C  63  1  0.01911000  0.87797800  0.45516700  1
  C  79  1  0.14082800  0.94940250  0.07648100  1
  C  80  1  0.18111000  0.00013750  0.06380000  1
  C  81  1  0.23536600  0.96576450  0.03925500  1
  C  82  1  0.25437600  0.87805900  0.02674800  1
  C  83  1  0.20364800  0.83470150  0.03802600  1
  C  84  1  0.31768400  0.83620400  0.00094300  1
  C  85  1  0.24209800  0.86526550  0.97802300  1
  C  86  1  0.21686600  0.80067450  0.96577400  1
  C  87  1  0.11116400  0.92086750  0.93195100  1
  C  88  1  0.12603600  0.98896250  0.94601400  1
  C  89  1  0.18844800  0.96204450  0.96897000  1
  C  90  1  0.38812400  0.87259850  0.99668600  1
  C  91  1  0.38826000  0.72840350  0.00210100  1
  C  92  1  0.43629400  0.67813750  0.97747600  1
  C  93  1  0.49850000  0.57857700  0.97731600  1
  C  94  1  0.51841700  0.52574100  0.00224100  1
  C  95  1  0.47747300  0.57478700  0.02723100  1
  C  96  1  0.41601700  0.67456850  0.02722900  1
  C  97  1  0.44748400  0.86990000  0.01902300  1
  C  98  1  0.50878300  0.90796550  0.01639300  1
  C  99  1  0.51627800  0.94616550  0.99071100  1
  C  100  1  0.46515100  0.94131400  0.96764000  1
  C  101  1  0.40441100  0.90276450  0.97044300  1
  C  119  1  0.94969400  0.90905300  0.40983300  1
  C  120  1  0.00038600  0.81800750  0.39719900  1
  C  121  1  0.96604700  0.79814750  0.37264800  1
  C  122  1  0.87836900  0.86686950  0.36011200  1
  C  123  1  0.83505900  0.96096950  0.37134400  1
  C  124  1  0.86869300  0.98134850  0.39598700  1
  C  125  1  0.83644600  0.84542050  0.33433200  1
  C  126  1  0.86560100  0.89179600  0.31137600  1
  C  127  1  0.80114000  0.98171150  0.29912000  1
  C  128  1  0.82758300  0.01781500  0.27619700  1
  C  129  1  0.92129700  0.96686600  0.26523400  1
  C  130  1  0.98933000  0.88385900  0.27932300  1
  C  131  1  0.96234700  0.84844700  0.30229600  1
  C  132  1  0.87265300  0.73861700  0.33013300  1
  C  133  1  0.72861800  0.88282950  0.33550300  1
  C  134  1  0.67822900  0.88517400  0.31089300  1
  C  135  1  0.57864000  0.92267300  0.31074700  1
  C  136  1  0.52587300  0.95582400  0.33566900  1
  C  137  1  0.57508900  0.94738750  0.36064900  1
  C  138  1  0.67490500  0.90876050  0.36064100  1
  C  139  1  0.86999000  0.68199550  0.35250800  1
  C  140  1  0.90776500  0.58267250  0.34990700  1
  C  141  1  0.94552800  0.53701800  0.32421400  1
  C  142  1  0.94083900  0.59292750  0.30112100  1
  C  143  1  0.90255200  0.69217750  0.30389500  1
  C  162  1  0.90930700  0.14034450  0.74315100  1
  C  163  1  0.79838600  0.23494850  0.70594300  1
  C  164  1  0.86706800  0.25399900  0.69341100  1
  C  165  1  0.96117900  0.20317200  0.70465400  1
  C  166  1  0.98159200  0.14907650  0.72930300  1
  C  167  1  0.84561200  0.31732450  0.66759600  1
  C  168  1  0.89204300  0.24179200  0.64467000  1
  C  169  1  0.98185700  0.21651500  0.63238600  1
  C  170  1  0.01798600  0.15393450  0.60949500  1
  C  171  1  0.96720800  0.11091750  0.59860000  1
  C  173  1  0.84886100  0.18817800  0.63566200  1
  C  174  1  0.73878600  0.38779850  0.66336600  1
  C  175  1  0.88290700  0.38784050  0.66872500  1
  C  176  1  0.88512000  0.43594250  0.64409700  1
  C  177  1  0.92228000  0.49831900  0.64391800  1
  C  178  1  0.95539300  0.51806050  0.66881200  1
  C  179  1  0.94744700  0.47691050  0.69380300  1
  C  180  1  0.90902000  0.41554500  0.69383600  1
  C  181  1  0.68214400  0.44712000  0.68571000  1
  C  182  1  0.58281300  0.50861050  0.68309200  1
  C  183  1  0.53714100  0.51635650  0.65741000  1
  C  184  1  0.59304000  0.46505950  0.63434300  1
  C  185  1  0.69231000  0.40420650  0.63713200  1
  C  210  1  0.11367800  0.81708850  0.80414300  1
  C  212  1  0.73730600  0.26800900  0.88875400  1
  C  215  1  0.18429600  0.73379000  0.78824400  1
  C  220  1  0.05145000  0.03053500  0.14606700  1
  C  221  1  0.09346600  0.02497350  0.17239700  1
  C  222  1  0.04468400  0.03177150  0.19712100  1
  C  223  1  0.90755900  0.05465650  0.17109100  1
  C  224  1  0.95681300  0.04652300  0.14636500  1
  C  227  1  0.18444600  0.00854850  0.20610700  1
  C  229  1  0.81755700  0.06824500  0.13741900  1
  C  231  1  0.26837400  0.99397750  0.22205700  1
  C  235  1  0.73425200  0.08094350  0.12151600  1
  C  239  1  0.10233000  0.01900500  0.12178200  1
  C  242  1  0.02489400  0.88097350  0.50578800  1
  C  243  1  0.03167600  0.92296100  0.53049700  1
  C  244  1  0.04603000  0.00262900  0.53076200  1
  C  245  1  0.05477400  0.03706850  0.50443000  1
  C  246  1  0.04665400  0.99594300  0.47971600  1
  C  249  1  0.00824000  0.80655500  0.53952400  1
  C  251  1  0.06848400  0.11341450  0.47073300  1
  C  253  1  0.99347100  0.73732650  0.55549800  1
  C  257  1  0.08120800  0.18401050  0.45480300  1
  C  262  1  0.04716200  0.04866750  0.55493400  1
  C  264  1  0.61739000  0.09928900  0.99621000  1
  C  265  1  0.70347400  0.10235050  0.99776400  1
  C  266  1  0.70386700  0.18835700  0.99431800  1
  C  267  1  0.61893800  0.27625950  0.98951400  1
  C  268  1  0.53314100  0.27295550  0.98743200  1
  C  269  1  0.53270900  0.18755650  0.99107700  1
  C  272  1  0.84558100  0.07359750  0.00210100  1
  C  274  1  0.38990500  0.30369800  0.98489700  1
  C  276  1  0.94951700  0.02189750  0.00675800  1
  C  280  1  0.28520600  0.35649400  0.98222700  1
  C  284  1  0.61353600  0.01708300  0.00162200  1
  C  286  1  0.09899200  0.28292750  0.32973300  1
  C  287  1  0.10228200  0.19366100  0.33120800  1
  C  288  1  0.18840600  0.10741550  0.32773400  1
  C  289  1  0.27620600  0.10471850  0.32299200  1
  C  290  1  0.27267000  0.19395700  0.32100300  1
  C  291  1  0.18715200  0.27963450  0.32466600  1
  C  294  1  0.07385400  0.08004150  0.33540700  1
  C  296  1  0.30304900  0.30673300  0.31858000  1
  C  298  1  0.02236000  0.02754550  0.33997800  1
  C  302  1  0.35561800  0.35888600  0.31597100  1
  C  306  1  0.01664600  0.36881050  0.33514600  1
  C  308  1  0.36274600  0.02123550  0.32059900  1
  C  310  1  0.28294400  0.61714900  0.66287500  1
  C  311  1  0.19374600  0.70318350  0.66439900  1
  C  312  1  0.10741200  0.70348350  0.66092500  1
  C  313  1  0.10455600  0.61850600  0.65612700  1
  C  314  1  0.19371000  0.53275600  0.65407900  1
  C  315  1  0.27947900  0.53241850  0.65774700  1
  C  318  1  0.08028400  0.84524150  0.66869800  1
  C  320  1  0.30632800  0.38956300  0.65158000  1
  C  323  1  0.35833800  0.28486600  0.64892200  1
  C  328  1  0.02100800  0.61557900  0.65374400  1
  H  5  1  0.78642800  0.19950250  0.64455900  1
  H  9  1  0.20974200  0.77442100  0.02904500  1
  H  11  1  0.73158200  0.26186150  0.69758900  1
  H  26  1  0.24651400  0.73180350  0.97273700  1
  H  33  1  0.25621600  0.71884050  0.79357200  1
  H  37  1  0.80881100  0.15044500  0.78824200  1
  H  41  1  0.64881400  0.37387750  0.97126600  1
  H  42  1  0.04490600  0.96447650  0.69401100  1
  H  58  1  0.66487500  0.28400850  0.88367300  1
  H  60  1  0.08052800  0.83211050  0.88888300  1
  H  64  1  0.04950400  0.98394100  0.65776400  1
  H  102  1  0.52389500  0.54450400  0.95867100  1
  H  103  1  0.42164600  0.71333050  0.95882000  1
  H  104  1  0.48919900  0.53773700  0.04550300  1
  H  105  1  0.38966200  0.70674350  0.04599000  1
  H  106  1  0.44152000  0.84588050  0.03822400  1
  H  107  1  0.54218200  0.91379050  0.03376700  1
  H  108  1  0.46822800  0.96994850  0.94888100  1
  H  109  1  0.36971700  0.90020350  0.95298000  1
  H  110  1  0.19974600  0.01318650  0.97783700  1
  H  111  1  0.09501800  0.05792600  0.93884900  1
  H  112  1  0.14292600  0.77627900  0.93382000  1
  H  113  1  0.26218800  0.00571450  0.03086800  1
  H  114  1  0.17228800  0.06190350  0.07249300  1
  H  118  1  0.11901800  0.83140950  0.07091400  1
  H  144  1  0.54445900  0.93181550  0.29209700  1
  H  145  1  0.71329000  0.86483750  0.29222200  1
  H  146  1  0.53811000  0.97264350  0.37892700  1
  H  147  1  0.70718000  0.90276100  0.37939600  1
  H  148  1  0.84617700  0.71197250  0.37170900  1
  H  149  1  0.91362800  0.54344850  0.36729700  1
  H  150  1  0.96918400  0.56124250  0.28234700  1
  H  151  1  0.89994000  0.72941450  0.28641100  1
  H  152  1  0.01344000  0.78604750  0.31122000  1
  H  153  1  0.05830200  0.84587200  0.27218000  1
  H  154  1  0.77683300  0.07996900  0.26711200  1
  H  155  1  0.73227200  0.02101850  0.30606800  1
  H  156  1  0.77479400  0.01516850  0.36234000  1
  H  157  1  0.00592800  0.73134050  0.36430400  1
  H  158  1  0.06211200  0.76505050  0.40592300  1
  H  161  1  0.83178400  0.04889450  0.40419900  1
  H  186  1  0.93123500  0.52348700  0.62525700  1
  H  187  1  0.86457000  0.42134700  0.62544400  1
  H  188  1  0.97282100  0.48856100  0.71206400  1
  H  189  1  0.90323400  0.38915250  0.71260400  1
  H  190  1  0.71216000  0.44122350  0.70489300  1
  H  191  1  0.54363700  0.54214050  0.70046400  1
  H  192  1  0.56134100  0.46828400  0.61558000  1
  H  193  1  0.72953700  0.36953500  0.61966200  1
  H  194  1  0.84627700  0.09482600  0.60557300  1
  H  195  1  0.08011200  0.14257500  0.60040100  1
  H  196  1  0.02112800  0.24611600  0.63931700  1
  H  197  1  0.01536600  0.20922750  0.69563800  1
  H  198  1  0.76531400  0.17190550  0.73922300  1
  H  202  1  0.04914600  0.11843600  0.73752100  1
  H  213  1  0.74876100  0.25499700  0.91111500  1
  H  214  1  0.74508500  0.32943750  0.88331000  1
  H  216  1  0.17337600  0.74695000  0.76587800  1
  H  217  1  0.17746400  0.67166150  0.79348400  1
  H  232  1  0.25536400  0.99553550  0.24441700  1
  H  233  1  0.28431000  0.05045100  0.21695200  1
  H  234  1  0.32984000  0.92479350  0.21664000  1
  H  236  1  0.74739900  0.07874900  0.09914900  1
  H  237  1  0.67212000  0.14989300  0.12673900  1
  H  238  1  0.71930900  0.02396000  0.12685400  1
  H  240  1  0.15077600  0.03998950  0.12152200  1
  H  241  1  0.83256500  0.08629550  0.22212800  1
  H  254  1  0.99496600  0.74881550  0.57785400  1
  H  255  1  0.04988200  0.66486900  0.55043900  1
  H  256  1  0.92426200  0.74514450  0.55005800  1
  H  258  1  0.07901600  0.17306000  0.43244300  1
  H  259  1  0.15015800  0.17717700  0.46003200  1
  H  260  1  0.02423600  0.25594050  0.46011600  1
  H  261  1  0.03989400  0.80859300  0.45496100  1
  H  263  1  0.08639800  0.08042150  0.55546500  1
  H  277  1  0.97847600  0.07013250  0.00530800  1
  H  278  1  0.98423500  0.96566750  0.99116700  1
  H  279  1  0.96481600  0.98948750  0.02741900  1
  H  281  1  0.25615200  0.30852500  0.98442700  1
  H  282  1  0.26541000  0.39075100  0.96183000  1
  H  283  1  0.25449100  0.41132500  0.99835200  1
  H  285  1  0.64975800  0.97556350  0.01761100  1
  H  299  1  0.07073200  0.95039650  0.33848500  1
  H  300  1  0.96614600  0.04912600  0.32437300  1
  H  301  1  0.98994900  0.04435400  0.36063300  1
  H  303  1  0.30750200  0.43585950  0.31820400  1
  H  304  1  0.38984800  0.34470750  0.29558100  1
  H  305  1  0.41045400  0.33473450  0.33210600  1
  H  307  1  0.97570000  0.37413400  0.35129000  1
  H  309  1  0.37381700  0.97682750  0.30488200  1
  H  322  1  0.95076300  0.97807100  0.67186800  1
  H  324  1  0.43533700  0.25588400  0.65114300  1
  H  325  1  0.34401800  0.26505500  0.62852200  1
  H  326  1  0.33418800  0.25409100  0.66504100  1
  H  327  1  0.37414900  0.64948200  0.68432700  1
  H  329  1  0.97664400  0.64890050  0.63800300  1
  N  1  1  0.44394800  0.55123250  0.65528900  1
  N  2  1  0.87483800  0.10305800  0.88471400  1
  N  15  1  0.55444700  0.43205850  0.00217200  1
  N  39  1  0.93105600  0.09467450  0.76748500  1
  N  52  1  0.06242700  0.94845500  0.90816800  1
  N  53  1  0.97359300  0.93079650  0.43415700  1
  N  54  1  0.94893400  0.98809000  0.24146600  1
  N  116  1  0.55124100  0.00441550  0.98861600  1
  N  117  1  0.09517000  0.97332200  0.10080900  1
  N  159  1  0.43222800  0.01360900  0.33554400  1
  N  160  1  0.00372400  0.44380250  0.32207700  1
  N  199  1  0.01330300  0.55377550  0.66871500  1
  N  201  1  0.98827900  0.06221100  0.57482400  1
  N  209  1  0.04548600  0.89806700  0.79221300  1
  N  225  1  0.10346800  0.02126100  0.21800800  1
  N  228  1  0.89851700  0.05549950  0.12549600  1
  N  247  1  0.02102200  0.87477550  0.55140100  1
  N  250  1  0.05570400  0.04522350  0.45883100  1
  N  270  1  0.79408900  0.16837150  0.99724100  1
  N  273  1  0.44152000  0.20906850  0.98961100  1
  N  292  1  0.16862200  0.03700350  0.33057300  1
  N  295  1  0.20843200  0.34949200  0.32327100  1
  N  316  1  0.03710200  0.79368400  0.66382600  1
  N  319  1  0.34923100  0.44125700  0.65630400  1
  O  16  1  0.80696900  0.18287250  0.84426500  1
  O  211  1  0.11314000  0.81828200  0.83267700  1
  O  226  1  0.18326400  0.00935750  0.17756400  1
  O  230  1  0.81875400  0.06756750  0.16595500  1
  O  248  1  0.00914400  0.80687100  0.51098000  1
  O  252  1  0.06775400  0.11292100  0.49926700  1
  O  271  1  0.79307300  0.02799650  0.00290500  1
  O  275  1  0.44302700  0.34818450  0.98322100  1
  O  293  1  0.02806000  0.17814350  0.33627500  1
  O  297  1  0.34774300  0.20913200  0.31684800  1
  O  317  1  0.17838800  0.79281200  0.66953100  1
  O  321  1  0.20872500  0.44260350  0.64987400  1
