# generated using pymatgen
data_CuH18C31NO4
_symmetry_space_group_name_H-M   'P 1'
_cell_length_a   12.32926000
_cell_length_b   13.39773394
_cell_length_c   13.41893814
_cell_angle_alpha   88.75641682
_cell_angle_beta   63.28770482
_cell_angle_gamma   63.34069666
_symmetry_Int_Tables_number   1
_chemical_formula_structural   CuH18C31NO4
_chemical_formula_sum   'Cu2 H36 C62 N2 O8'
_cell_volume   1723.97290303
_cell_formula_units_Z   2
loop_
 _symmetry_equiv_pos_site_id
 _symmetry_equiv_pos_as_xyz
  1  'x, y, z'
loop_
 _atom_site_type_symbol
 _atom_site_label
 _atom_site_symmetry_multiplicity
 _atom_site_fract_x
 _atom_site_fract_y
 _atom_site_fract_z
 _atom_site_occupancy
  C  C0  1  0.65215000  0.28680500  0.49105500  1
  C  C1  1  0.65246000  0.49072000  0.28684000  1
  C  C2  1  0.05078500  0.52038000  0.98142000  1
  C  C3  1  0.05050500  0.98133000  0.52040000  1
  C  C4  1  0.05419500  0.58033000  0.06556000  1
  C  C5  1  0.05359500  0.06567000  0.58055000  1
  C  C6  1  0.94308500  0.62079000  0.17739000  1
  C  C7  1  0.94223500  0.17750000  0.62134000  1
  C  C8  1  0.83421000  0.59851500  0.20717500  1
  C  C9  1  0.83333500  0.20729000  0.59920000  1
  C  C10  1  0.14835000  0.49988000  0.86635000  1
  C  C11  1  0.15077000  0.86641000  0.49698000  1
  C  C12  1  0.26175000  0.57937000  0.91779000  1
  C  C13  1  0.26188000  0.91814500  0.57878500  1
  C  C14  1  0.74133500  0.48344000  0.16549000  1
  C  C15  1  0.74006500  0.16534500  0.48485500  1
  C  C16  1  0.28165500  0.32024000  0.31843000  1
  C  C17  1  0.62250500  0.65615000  0.65473000  1
  C  C18  1  0.68789500  0.69252500  0.69331500  1
  C  C19  1  0.34440000  0.71356500  0.51451500  1
  C  C20  1  0.34380500  0.51526500  0.71354500  1
  C  C21  1  0.83359500  0.63648000  0.64153000  1
  C  C22  1  0.91750000  0.54122000  0.54415000  1
  C  C23  1  0.84149500  0.50805500  0.50895500  1
  C  C24  1  0.06935000  0.47657000  0.47921000  1
  C  C25  1  0.13600500  0.38431000  0.38456000  1
  C  C26  1  0.05808500  0.35535500  0.35504500  1
  C  C27  1  0.91484000  0.41557000  0.41573000  1
  C  C28  1  0.16071000  0.49744500  0.50085500  1
  C  C29  1  0.36347500  0.34672500  0.34445500  1
  C  C30  1  0.16361000  0.60611000  0.03314000  1
  C  C31  1  0.16333000  0.03351000  0.60582000  1
  C  C32  1  0.25157000  0.53006500  0.83460500  1
  C  C33  1  0.25288500  0.83476500  0.52837500  1
  C  C34  1  0.73925000  0.42266500  0.08318500  1
  C  C35  1  0.73685000  0.08277000  0.42546000  1
  C  C36  1  0.83822000  0.39376000  0.96885000  1
  C  C37  1  0.83477500  0.96813500  0.39770500  1
  C  C38  1  0.94217000  0.42310000  0.93472000  1
  C  C39  1  0.93915000  0.93393000  0.42643000  1
  C  C40  1  0.94561500  0.48847500  0.01402500  1
  C  C41  1  0.94397000  0.01358000  0.49024000  1
  C  C42  1  0.83953500  0.52357000  0.13024000  1
  C  C43  1  0.83823500  0.13005500  0.52492500  1
  C  C44  1  0.88226000  0.68348000  0.70064000  1
  C  C45  1  0.86419500  0.66090500  0.80807500  1
  C  C46  1  0.87697000  0.72500500  0.87877500  1
  C  C47  1  0.91038000  0.81056000  0.84222000  1
  C  C48  1  0.92630000  0.83489500  0.73650500  1
  C  C49  1  0.91122000  0.77242000  0.66606000  1
  C  C50  1  0.18491000  0.65721500  0.11465500  1
  C  C51  1  0.22850500  0.59231500  0.18597500  1
  C  C52  1  0.28410000  0.62633500  0.24034500  1
  C  C53  1  0.29580000  0.72520000  0.22444000  1
  C  C54  1  0.24612000  0.79327500  0.15826500  1
  C  C55  1  0.19114500  0.75940500  0.10323500  1
  C  C56  1  0.18446500  0.11528500  0.65686500  1
  C  C57  1  0.22812000  0.18668500  0.59194500  1
  C  C58  1  0.28368000  0.24125500  0.62581500  1
  C  C59  1  0.29526000  0.22556500  0.72457500  1
  C  C60  1  0.24586500  0.15907500  0.79252500  1
  C  C61  1  0.19087500  0.10385000  0.75882000  1
  Cu  Cu62  1  0.42101000  0.47366000  0.47366000  1
  Cu  Cu63  1  0.57899000  0.52636000  0.52636000  1
  H  H64  1  0.34462000  0.60013000  0.89279000  1
  H  H65  1  0.34428000  0.89327500  0.60001500  1
  H  H66  1  0.10865000  0.28491500  0.28334500  1
  H  H67  1  0.33193500  0.25016000  0.24657000  1
  H  H68  1  0.12454000  0.56269000  0.56987000  1
  H  H69  1  0.50985000  0.70010500  0.69713500  1
  H  H70  1  0.62336000  0.76484500  0.76616500  1
  H  H71  1  0.86473000  0.38660000  0.38609000  1
  H  H72  1  0.93620500  0.67473500  0.24139500  1
  H  H73  1  0.93544500  0.24164500  0.67508500  1
  H  H74  1  0.14191000  0.46598000  0.79873000  1
  H  H75  1  0.14676500  0.79846500  0.46076500  1
  H  H76  1  0.66434500  0.39282500  0.10761500  1
  H  H77  1  0.66183000  0.10715500  0.39585500  1
  H  H78  1  0.01751000  0.39299500  0.84511500  1
  H  H79  1  0.01411500  0.84413000  0.39643000  1
  H  H80  1  0.83736000  0.34466000  0.90640000  1
  H  H81  1  0.83303000  0.90550000  0.34961000  1
  H  H82  1  0.74480500  0.64391000  0.29093000  1
  H  H83  1  0.74411500  0.29127000  0.64427000  1
  H  H84  1  0.47593000  0.29810500  0.29381500  1
  H  H85  1  0.83184000  0.59848500  0.83958500  1
  H  H86  1  0.85638500  0.71122000  0.96356000  1
  H  H87  1  0.91948000  0.86049500  0.89739500  1
  H  H88  1  0.94466000  0.90537500  0.71200500  1
  H  H89  1  0.91678500  0.79564000  0.58697000  1
  H  H90  1  0.22731000  0.51216000  0.19381000  1
  H  H91  1  0.32217500  0.57431500  0.29189500  1
  H  H92  1  0.34313000  0.74918500  0.26355500  1
  H  H93  1  0.25379500  0.87053000  0.14703000  1
  H  H94  1  0.15987500  0.80962500  0.04716500  1
  H  H95  1  0.22697500  0.19443500  0.51188500  1
  H  H96  1  0.32180500  0.29282500  0.57376500  1
  H  H97  1  0.34210000  0.26521500  0.74864500  1
  H  H98  1  0.25349000  0.14793500  0.86968500  1
  H  H99  1  0.15968000  0.04765000  0.80902000  1
  N  N100  1  0.30222000  0.43374000  0.43374000  1
  N  N101  1  0.69768000  0.56559000  0.56559000  1
  O  O102  1  0.55174000  0.31591000  0.46687000  1
  O  O103  1  0.55174000  0.46687000  0.31591000  1
  O  O104  1  0.68515000  0.36040000  0.51138000  1
  O  O105  1  0.68515000  0.51138000  0.36040000  1
  O  O106  1  0.31485000  0.63959000  0.48865000  1
  O  O107  1  0.31485000  0.48865000  0.63959000  1
  O  O108  1  0.44826000  0.68408000  0.53316000  1
  O  O109  1  0.44826000  0.53316000  0.68408000  1
