# generated using pymatgen
data_YH6(C2O)6
_symmetry_space_group_name_H-M   'P 1'
_cell_length_a   9.77356000
_cell_length_b   10.99543000
_cell_length_c   16.28861000
_cell_angle_alpha   89.66875000
_cell_angle_beta   90.23409000
_cell_angle_gamma   89.72655000
_symmetry_Int_Tables_number   1
_chemical_formula_structural   YH6(C2O)6
_chemical_formula_sum   'Y4 H24 C48 O24'
_cell_volume   1750.38324793
_cell_formula_units_Z   4
loop_
 _symmetry_equiv_pos_site_id
 _symmetry_equiv_pos_as_xyz
  1  'x, y, z'
loop_
 _atom_site_type_symbol
 _atom_site_label
 _atom_site_symmetry_multiplicity
 _atom_site_fract_x
 _atom_site_fract_y
 _atom_site_fract_z
 _atom_site_occupancy
  Y  Y1  1  0.79001000  0.50019000  0.99964000  1.0
  Y  Y2  1  0.28981000  0.00211000  0.49805000  1.0
  Y  Y3  1  0.20998000  0.49982000  0.00036000  1.0
  Y  Y4  1  0.71019000  0.99789000  0.50195000  1.0
  H  H1  1  0.21092000  0.36253000  0.76819000  1.0
  H  H2  1  0.21984000  0.23688000  0.64070000  1.0
  H  H3  1  0.78577000  0.28293000  0.60868000  1.0
  H  H4  1  0.77752000  0.41140000  0.73536000  1.0
  H  H5  1  0.22396000  0.09707000  0.03037000  1.0
  H  H6  1  0.79095000  0.12936000  0.98798000  1.0
  H  H7  1  0.70804000  0.13815000  0.73168000  1.0
  H  H8  1  0.71829000  0.26411000  0.85869000  1.0
  H  H9  1  0.28560000  0.21642000  0.89263000  1.0
  H  H10  1  0.27586000  0.08904000  0.76589000  1.0
  H  H11  1  0.72326000  0.39963000  0.47121000  1.0
  H  H12  1  0.29057000  0.37320000  0.51306000  1.0
  H  H13  1  0.78907000  0.63748000  0.23181000  1.0
  H  H14  1  0.78015000  0.76313000  0.35930000  1.0
  H  H15  1  0.21423000  0.71707000  0.39132000  1.0
  H  H16  1  0.22248000  0.58860000  0.26463000  1.0
  H  H17  1  0.77604000  0.90294000  0.96963000  1.0
  H  H18  1  0.20904000  0.87064000  0.01202000  1.0
  H  H19  1  0.29195000  0.86186000  0.26832000  1.0
  H  H20  1  0.28170000  0.73590000  0.14131000  1.0
  H  H21  1  0.71440000  0.78358000  0.10737000  1.0
  H  H22  1  0.72413000  0.91097000  0.23411000  1.0
  H  H23  1  0.27673000  0.60038000  0.52878000  1.0
  H  H24  1  0.70942000  0.62681000  0.48694000  1.0
  C  C1  1  0.99328000  0.39164000  0.76049000  1.0
  C  C2  1  0.11886000  0.34588000  0.73247000  1.0
  C  C3  1  0.12371000  0.27567000  0.66176000  1.0
  C  C4  1  0.00252000  0.24926000  0.61905000  1.0
  C  C5  1  0.87804000  0.30117000  0.64407000  1.0
  C  C6  1  0.87358000  0.37275000  0.71421000  1.0
  C  C7  1  0.98512000  0.44960000  0.84287000  1.0
  C  C8  1  0.00575000  0.16075000  0.54971000  1.0
  C  C9  1  0.00827000  0.12612000  0.01035000  1.0
  C  C10  1  0.12664000  0.05361000  0.01709000  1.0
  C  C11  1  0.88151000  0.07181000  0.99317000  1.0
  C  C12  1  0.01718000  0.26116000  0.01855000  1.0
  C  C13  1  0.49088000  0.10842000  0.73989000  1.0
  C  C14  1  0.61638000  0.15488000  0.76752000  1.0
  C  C15  1  0.62194000  0.22534000  0.83817000  1.0
  C  C16  1  0.50171000  0.25112000  0.88187000  1.0
  C  C17  1  0.37746000  0.19889000  0.85696000  1.0
  C  C18  1  0.37215000  0.12758000  0.78659000  1.0
  C  C19  1  0.48277000  0.04879000  0.65783000  1.0
  C  C20  1  0.50580000  0.33776000  0.95265000  1.0
  C  C21  1  0.50770000  0.37374000  0.49133000  1.0
  C  C22  1  0.62638000  0.44464000  0.48390000  1.0
  C  C23  1  0.38120000  0.42968000  0.50743000  1.0
  C  C24  1  0.51725000  0.23858000  0.48469000  1.0
  C  C25  1  0.00672000  0.60836000  0.23951000  1.0
  C  C26  1  0.88114000  0.65413000  0.26752000  1.0
  C  C27  1  0.87628000  0.72434000  0.33824000  1.0
  C  C28  1  0.99749000  0.75075000  0.38094000  1.0
  C  C29  1  0.12195000  0.69884000  0.35593000  1.0
  C  C30  1  0.12641000  0.62726000  0.28579000  1.0
  C  C31  1  0.01483000  0.55041000  0.15712000  1.0
  C  C32  1  0.99418000  0.83925000  0.45029000  1.0
  C  C33  1  0.99173000  0.87389000  0.98965000  1.0
  C  C34  1  0.87335000  0.94639000  0.98291000  1.0
  C  C35  1  0.11849000  0.92820000  0.00683000  1.0
  C  C36  1  0.98276000  0.73885000  0.98145000  1.0
  C  C37  1  0.50911000  0.89159000  0.26011000  1.0
  C  C38  1  0.38361000  0.84513000  0.23248000  1.0
  C  C39  1  0.37806000  0.77467000  0.16183000  1.0
  C  C40  1  0.49828000  0.74888000  0.11813000  1.0
  C  C41  1  0.62254000  0.80112000  0.14304000  1.0
  C  C42  1  0.62784000  0.87243000  0.21341000  1.0
  C  C43  1  0.51728000  0.95121000  0.34217000  1.0
  C  C44  1  0.49426000  0.66224000  0.04735000  1.0
  C  C45  1  0.49229000  0.62627000  0.50867000  1.0
  C  C46  1  0.37362000  0.55537000  0.51610000  1.0
  C  C47  1  0.61880000  0.57033000  0.49256000  1.0
  C  C48  1  0.48280000  0.76142000  0.51531000  1.0
  O  O1  1  0.86630000  0.47423000  0.87064000  1.0
  O  O2  1  0.09654000  0.46584000  0.88295000  1.0
  O  O3  1  0.89397000  0.11101000  0.52874000  1.0
  O  O4  1  0.12102000  0.13944000  0.51628000  1.0
  O  O5  1  0.90655000  0.32249000  0.01217000  1.0
  O  O6  1  0.13495000  0.30804000  0.02912000  1.0
  O  O7  1  0.36422000  0.02406000  0.62915000  1.0
  O  O8  1  0.59445000  0.03083000  0.61897000  1.0
  O  O9  1  0.39335000  0.38140000  0.97854000  1.0
  O  O10  1  0.62233000  0.36331000  0.98316000  1.0
  O  O11  1  0.40697000  0.17707000  0.48790000  1.0
  O  O12  1  0.63620000  0.19184000  0.47838000  1.0
  O  O13  1  0.13372000  0.52577000  0.12935000  1.0
  O  O14  1  0.90348000  0.53417000  0.11706000  1.0
  O  O15  1  0.10606000  0.88901000  0.47127000  1.0
  O  O16  1  0.87900000  0.86056000  0.48371000  1.0
  O  O17  1  0.09348000  0.67750000  0.98783000  1.0
  O  O18  1  0.86508000  0.69198000  0.97088000  1.0
  O  O19  1  0.63575000  0.97595000  0.37084000  1.0
  O  O20  1  0.40552000  0.96918000  0.38104000  1.0
  O  O21  1  0.60661000  0.61862000  0.02147000  1.0
  O  O22  1  0.37764000  0.63668000  0.01683000  1.0
  O  O23  1  0.59299000  0.82292000  0.51210000  1.0
  O  O24  1  0.36377000  0.80818000  0.52162000  1.0
