# generated using pymatgen
data_Zn2BH19C23(N5O2)2
_symmetry_space_group_name_H-M   'P 1'
_cell_length_a   13.12532000
_cell_length_b   13.12532000
_cell_length_c   54.04424000
_cell_angle_alpha   90.00045000
_cell_angle_beta   89.99955000
_cell_angle_gamma   90.00000000
_symmetry_Int_Tables_number   1
_chemical_formula_structural   Zn2BH19C23(N5O2)2
_chemical_formula_sum   'Zn16 B8 H152 C184 N80 O32'
_cell_volume   9310.41875783
_cell_formula_units_Z   8
loop_
 _symmetry_equiv_pos_site_id
 _symmetry_equiv_pos_as_xyz
  1  'x, y, z'
loop_
 _atom_site_type_symbol
 _atom_site_label
 _atom_site_symmetry_multiplicity
 _atom_site_fract_x
 _atom_site_fract_y
 _atom_site_fract_z
 _atom_site_occupancy
  Zn  Zn0  1  0.15847000  0.12444000  0.88434000  1
  Zn  Zn1  1  0.32574000  0.05947000  0.68470000  1
  Zn  Zn2  1  0.84156000  0.87555000  0.38431000  1
  Zn  Zn3  1  0.67425000  0.94060000  0.18471000  1
  Zn  Zn4  1  0.37556000  0.65847000  0.13433000  1
  Zn  Zn5  1  0.44056000  0.82577000  0.93470000  1
  Zn  Zn6  1  0.62444000  0.34154000  0.63432000  1
  Zn  Zn7  1  0.55944000  0.17426000  0.43471000  1
  Zn  Zn8  1  0.34154000  0.62445000  0.36568000  1
  Zn  Zn9  1  0.17426000  0.55944000  0.56529000  1
  Zn  Zn10  1  0.65846000  0.37557000  0.86567000  1
  Zn  Zn11  1  0.82576000  0.44056000  0.06529000  1
  Zn  Zn12  1  0.12443000  0.15848000  0.11566000  1
  Zn  Zn13  1  0.05947000  0.32575000  0.31529000  1
  Zn  Zn14  1  0.87554000  0.84156000  0.61569000  1
  Zn  Zn15  1  0.94059000  0.67425000  0.81529000  1
  B  B16  1  0.26322000  0.52951000  0.87198000  1
  B  B17  1  0.73677000  0.47049000  0.37198000  1
  B  B18  1  0.97049000  0.76323000  0.12198000  1
  B  B19  1  0.02950000  0.23678000  0.62197000  1
  B  B20  1  0.23677000  0.02951000  0.37802000  1
  B  B21  1  0.76323000  0.97050000  0.87802000  1
  B  B22  1  0.52951000  0.26323000  0.12802000  1
  B  B23  1  0.47049000  0.73678000  0.62802000  1
  H  H24  1  0.05456000  0.53027000  0.85317000  1
  H  H25  1  0.32535000  0.69700000  0.83999000  1
  H  H26  1  0.16731000  0.77549000  0.81102000  1
  H  H27  1  0.28975000  0.30987000  0.86828000  1
  H  H28  1  0.00166000  0.31225000  0.90301000  1
  H  H29  1  0.06503000  0.51120000  0.89676000  1
  H  H30  1  0.46779000  0.48226000  0.89007000  1
  H  H31  1  0.30748000  0.46297000  0.82209000  1
  H  H32  1  0.49999000  0.37713000  0.81689000  1
  H  H33  1  0.33709000  0.95706000  0.88617000  1
  H  H34  1  0.33346000  0.99316000  0.96363000  1
  H  H35  1  0.20324000  0.13581000  0.94199000  1
  H  H36  1  0.35384000  0.73073000  0.88125000  1
  H  H37  1  0.36183000  0.61535000  0.95391000  1
  H  H38  1  0.26150000  0.47600000  0.92360000  1
  H  H39  1  0.36143000  0.19556000  0.80518000  1
  H  H40  1  0.37065000  0.16315000  0.75931000  1
  H  H41  1  0.12719000  0.94583000  0.76604000  1
  H  H42  1  0.11492000  0.98246000  0.81086000  1
  H  H43  1  0.94543000  0.46974000  0.35317000  1
  H  H44  1  0.67464000  0.30300000  0.33998000  1
  H  H45  1  0.83271000  0.22452000  0.31102000  1
  H  H46  1  0.71025000  0.69014000  0.36829000  1
  H  H47  1  0.99835000  0.68773000  0.40301000  1
  H  H48  1  0.93495000  0.48879000  0.39676000  1
  H  H49  1  0.53220000  0.51776000  0.39007000  1
  H  H50  1  0.69251000  0.53704000  0.32209000  1
  H  H51  1  0.50000000  0.62289000  0.31689000  1
  H  H52  1  0.66294000  0.04290000  0.38618000  1
  H  H53  1  0.66652000  0.00687000  0.46364000  1
  H  H54  1  0.79673000  0.86423000  0.44200000  1
  H  H55  1  0.64614000  0.26928000  0.38124000  1
  H  H56  1  0.63816000  0.38466000  0.45391000  1
  H  H57  1  0.73849000  0.52401000  0.42360000  1
  H  H58  1  0.63851000  0.80440000  0.30518000  1
  H  H59  1  0.62942000  0.83695000  0.25932000  1
  H  H60  1  0.87276000  0.05413000  0.26605000  1
  H  H61  1  0.88515000  0.01762000  0.31087000  1
  H  H62  1  0.96974000  0.55458000  0.10317000  1
  H  H63  1  0.80301000  0.82536000  0.08999000  1
  H  H64  1  0.72453000  0.66731000  0.06103000  1
  H  H65  1  0.19014000  0.78977000  0.11829000  1
  H  H66  1  0.18775000  0.50167000  0.15301000  1
  H  H67  1  0.98880000  0.56505000  0.14676000  1
  H  H68  1  0.01775000  0.96780000  0.14008000  1
  H  H69  1  0.03704000  0.80750000  0.07209000  1
  H  H70  1  0.12288000  0.00001000  0.06689000  1
  H  H71  1  0.54295000  0.83709000  0.13618000  1
  H  H72  1  0.50685000  0.83348000  0.21364000  1
  H  H73  1  0.36421000  0.70325000  0.19200000  1
  H  H74  1  0.76928000  0.85386000  0.13125000  1
  H  H75  1  0.88467000  0.86184000  0.20392000  1
  H  H76  1  0.02401000  0.76152000  0.17361000  1
  H  H77  1  0.30443000  0.86145000  0.05518000  1
  H  H78  1  0.33692000  0.87061000  0.00932000  1
  H  H79  1  0.55415000  0.62723000  0.01604000  1
  H  H80  1  0.51759000  0.61487000  0.06086000  1
  H  H81  1  0.03026000  0.44543000  0.60317000  1
  H  H82  1  0.19699000  0.17465000  0.58998000  1
  H  H83  1  0.27548000  0.33270000  0.56102000  1
  H  H84  1  0.80987000  0.21026000  0.61828000  1
  H  H85  1  0.81226000  0.49835000  0.65301000  1
  H  H86  1  0.01121000  0.43496000  0.64676000  1
  H  H87  1  0.98223000  0.03220000  0.64007000  1
  H  H88  1  0.96297000  0.19253000  0.57209000  1
  H  H89  1  0.87711000  0.00002000  0.56689000  1
  H  H90  1  0.45709000  0.16293000  0.63617000  1
  H  H91  1  0.49313000  0.16653000  0.71363000  1
  H  H92  1  0.63579000  0.29674000  0.69200000  1
  H  H93  1  0.23071000  0.14616000  0.63124000  1
  H  H94  1  0.11535000  0.13817000  0.70391000  1
  H  H95  1  0.97599000  0.23850000  0.67360000  1
  H  H96  1  0.69558000  0.13853000  0.55518000  1
  H  H97  1  0.66311000  0.12938000  0.50931000  1
  H  H98  1  0.44584000  0.37280000  0.51604000  1
  H  H99  1  0.48241000  0.38511000  0.56087000  1
  H  H100  1  0.44543000  0.03027000  0.39683000  1
  H  H101  1  0.17464000  0.19700000  0.41001000  1
  H  H102  1  0.33270000  0.27549000  0.43898000  1
  H  H103  1  0.21025000  0.80987000  0.38172000  1
  H  H104  1  0.49835000  0.81227000  0.34699000  1
  H  H105  1  0.43496000  0.01121000  0.35324000  1
  H  H106  1  0.03220000  0.98224000  0.35993000  1
  H  H107  1  0.19252000  0.96297000  0.42791000  1
  H  H108  1  0.00001000  0.87712000  0.43311000  1
  H  H109  1  0.16293000  0.45710000  0.36383000  1
  H  H110  1  0.16652000  0.49314000  0.28637000  1
  H  H111  1  0.29674000  0.63580000  0.30800000  1
  H  H112  1  0.14615000  0.23072000  0.36876000  1
  H  H113  1  0.13816000  0.11536000  0.29609000  1
  H  H114  1  0.23849000  0.97600000  0.32639000  1
  H  H115  1  0.13852000  0.69559000  0.44482000  1
  H  H116  1  0.12938000  0.66312000  0.49069000  1
  H  H117  1  0.37279000  0.44585000  0.48396000  1
  H  H118  1  0.38510000  0.48242000  0.43913000  1
  H  H119  1  0.55457000  0.96974000  0.89683000  1
  H  H120  1  0.82536000  0.80302000  0.91001000  1
  H  H121  1  0.66730000  0.72453000  0.93897000  1
  H  H122  1  0.78976000  0.19014000  0.88171000  1
  H  H123  1  0.50166000  0.18775000  0.84699000  1
  H  H124  1  0.56504000  0.98881000  0.85323000  1
  H  H125  1  0.96779000  0.01775000  0.85992000  1
  H  H126  1  0.80749000  0.03705000  0.92790000  1
  H  H127  1  0.00000000  0.12289000  0.93311000  1
  H  H128  1  0.83708000  0.54295000  0.86382000  1
  H  H129  1  0.83347000  0.50685000  0.78636000  1
  H  H130  1  0.70325000  0.36422000  0.80800000  1
  H  H131  1  0.85386000  0.76929000  0.86875000  1
  H  H132  1  0.86184000  0.88468000  0.79608000  1
  H  H133  1  0.76151000  0.02401000  0.82639000  1
  H  H134  1  0.86145000  0.30443000  0.94481000  1
  H  H135  1  0.87060000  0.33693000  0.99068000  1
  H  H136  1  0.62723000  0.55416000  0.98395000  1
  H  H137  1  0.61487000  0.51760000  0.93913000  1
  H  H138  1  0.53027000  0.05457000  0.14683000  1
  H  H139  1  0.69699000  0.32536000  0.16001000  1
  H  H140  1  0.77548000  0.16731000  0.18898000  1
  H  H141  1  0.30986000  0.28976000  0.13172000  1
  H  H142  1  0.31224000  0.00167000  0.09699000  1
  H  H143  1  0.51119000  0.06504000  0.10324000  1
  H  H144  1  0.48225000  0.46779000  0.10993000  1
  H  H145  1  0.46297000  0.30748000  0.17791000  1
  H  H146  1  0.37712000  0.49999000  0.18311000  1
  H  H147  1  0.95706000  0.33710000  0.11383000  1
  H  H148  1  0.99315000  0.33347000  0.03637000  1
  H  H149  1  0.13580000  0.20325000  0.05801000  1
  H  H150  1  0.73072000  0.35385000  0.11875000  1
  H  H151  1  0.61534000  0.36184000  0.04609000  1
  H  H152  1  0.47599000  0.26151000  0.07639000  1
  H  H153  1  0.19555000  0.36144000  0.19482000  1
  H  H154  1  0.16314000  0.37065000  0.24069000  1
  H  H155  1  0.94583000  0.12720000  0.23396000  1
  H  H156  1  0.98245000  0.11492000  0.18914000  1
  H  H157  1  0.46973000  0.94543000  0.64683000  1
  H  H158  1  0.30300000  0.67465000  0.66002000  1
  H  H159  1  0.22452000  0.83271000  0.68897000  1
  H  H160  1  0.69013000  0.71025000  0.63171000  1
  H  H161  1  0.68772000  0.99836000  0.59698000  1
  H  H162  1  0.48878000  0.93496000  0.60324000  1
  H  H163  1  0.51776000  0.53221000  0.60992000  1
  H  H164  1  0.53704000  0.69252000  0.67791000  1
  H  H165  1  0.62288000  0.50001000  0.68311000  1
  H  H166  1  0.04290000  0.66295000  0.61382000  1
  H  H167  1  0.00687000  0.66652000  0.53636000  1
  H  H168  1  0.86422000  0.79674000  0.55800000  1
  H  H169  1  0.26927000  0.64615000  0.61875000  1
  H  H170  1  0.38465000  0.63817000  0.54608000  1
  H  H171  1  0.52400000  0.73849000  0.57639000  1
  H  H172  1  0.80439000  0.63852000  0.69481000  1
  H  H173  1  0.83695000  0.62943000  0.74068000  1
  H  H174  1  0.05413000  0.87277000  0.73395000  1
  H  H175  1  0.01761000  0.88516000  0.68913000  1
  C  C176  1  0.10589000  0.58811000  0.84618000  1
  C  C177  1  0.24552000  0.67692000  0.83910000  1
  C  C178  1  0.16820000  0.71472000  0.82462000  1
  C  C179  1  0.22144000  0.33844000  0.87714000  1
  C  C180  1  0.07234000  0.34117000  0.89530000  1
  C  C181  1  0.10184000  0.44047000  0.89176000  1
  C  C182  1  0.45056000  0.46595000  0.87087000  1
  C  C183  1  0.36921000  0.45440000  0.83516000  1
  C  C184  1  0.46435000  0.41203000  0.83283000  1
  C  C185  1  0.31912000  0.98594000  0.90444000  1
  C  C186  1  0.31511000  0.00802000  0.94445000  1
  C  C187  1  0.25050000  0.07758000  0.93368000  1
  C  C188  1  0.34245000  0.68100000  0.89697000  1
  C  C189  1  0.34427000  0.61814000  0.93436000  1
  C  C190  1  0.29545000  0.54900000  0.91950000  1
  C  C191  1  0.23521000  0.11117000  0.83819000  1
  C  C192  1  0.23870000  0.09052000  0.81092000  1
  C  C193  1  0.31071000  0.14146000  0.79623000  1
  C  C194  1  0.31576000  0.12351000  0.77088000  1
  C  C195  1  0.25002000  0.05268000  0.75970000  1
  C  C196  1  0.17786000  0.00176000  0.77433000  1
  C  C197  1  0.17178000  0.02116000  0.79965000  1
  C  C198  1  0.25544000  0.03228000  0.73237000  1
  C  C199  1  0.89411000  0.41191000  0.34618000  1
  C  C200  1  0.75448000  0.32308000  0.33910000  1
  C  C201  1  0.83181000  0.28529000  0.32462000  1
  C  C202  1  0.77855000  0.66157000  0.37715000  1
  C  C203  1  0.92766000  0.65882000  0.39531000  1
  C  C204  1  0.89815000  0.55952000  0.39176000  1
  C  C205  1  0.54943000  0.53407000  0.37087000  1
  C  C206  1  0.63078000  0.54562000  0.33516000  1
  C  C207  1  0.53564000  0.58799000  0.33283000  1
  C  C208  1  0.68089000  0.01404000  0.40445000  1
  C  C209  1  0.68488000  0.99200000  0.44446000  1
  C  C210  1  0.74948000  0.92244000  0.43369000  1
  C  C211  1  0.65754000  0.31901000  0.39697000  1
  C  C212  1  0.65573000  0.38187000  0.43436000  1
  C  C213  1  0.70454000  0.45101000  0.41950000  1
  C  C214  1  0.76478000  0.88884000  0.33818000  1
  C  C215  1  0.76128000  0.90950000  0.31092000  1
  C  C216  1  0.68927000  0.85851000  0.29624000  1
  C  C217  1  0.68429000  0.87655000  0.27088000  1
  C  C218  1  0.74999000  0.94742000  0.25971000  1
  C  C219  1  0.82214000  0.99824000  0.27435000  1
  C  C220  1  0.82827000  0.97886000  0.29967000  1
  C  C221  1  0.74453000  0.96792000  0.23237000  1
  C  C222  1  0.91191000  0.60590000  0.09618000  1
  C  C223  1  0.82309000  0.74552000  0.08910000  1
  C  C224  1  0.78529000  0.66820000  0.07462000  1
  C  C225  1  0.16157000  0.72146000  0.12714000  1
  C  C226  1  0.15883000  0.57235000  0.14531000  1
  C  C227  1  0.05953000  0.60185000  0.14176000  1
  C  C228  1  0.03406000  0.95058000  0.12087000  1
  C  C229  1  0.04561000  0.86923000  0.08516000  1
  C  C230  1  0.08798000  0.96437000  0.08283000  1
  C  C231  1  0.51407000  0.81912000  0.15445000  1
  C  C232  1  0.49200000  0.81512000  0.19446000  1
  C  C233  1  0.42244000  0.75051000  0.18369000  1
  C  C234  1  0.81901000  0.84247000  0.14698000  1
  C  C235  1  0.88187000  0.84428000  0.18436000  1
  C  C236  1  0.95101000  0.79546000  0.16950000  1
  C  C237  1  0.38884000  0.73521000  0.08818000  1
  C  C238  1  0.40950000  0.73869000  0.06092000  1
  C  C239  1  0.35853000  0.81071000  0.04624000  1
  C  C240  1  0.37652000  0.81574000  0.02089000  1
  C  C241  1  0.44737000  0.75003000  0.00971000  1
  C  C242  1  0.49824000  0.67787000  0.02434000  1
  C  C243  1  0.47886000  0.67175000  0.04966000  1
  C  C244  1  0.46782000  0.75548000  0.98237000  1
  C  C245  1  0.08809000  0.39411000  0.59618000  1
  C  C246  1  0.17692000  0.25449000  0.58910000  1
  C  C247  1  0.21472000  0.33181000  0.57462000  1
  C  C248  1  0.83843000  0.27856000  0.62714000  1
  C  C249  1  0.84118000  0.42767000  0.64531000  1
  C  C250  1  0.94048000  0.39816000  0.64176000  1
  C  C251  1  0.96593000  0.04944000  0.62087000  1
  C  C252  1  0.95439000  0.13080000  0.58516000  1
  C  C253  1  0.91202000  0.03566000  0.58283000  1
  C  C254  1  0.48596000  0.18089000  0.65444000  1
  C  C255  1  0.50801000  0.18488000  0.69445000  1
  C  C256  1  0.57757000  0.24949000  0.68368000  1
  C  C257  1  0.18098000  0.15755000  0.64697000  1
  C  C258  1  0.11813000  0.15573000  0.68436000  1
  C  C259  1  0.04899000  0.20455000  0.66949000  1
  C  C260  1  0.61117000  0.26476000  0.58819000  1
  C  C261  1  0.59052000  0.26127000  0.56093000  1
  C  C262  1  0.64148000  0.18927000  0.54623000  1
  C  C263  1  0.62348000  0.18426000  0.52088000  1
  C  C264  1  0.55262000  0.24999000  0.50971000  1
  C  C265  1  0.50176000  0.32215000  0.52434000  1
  C  C266  1  0.52115000  0.32824000  0.54967000  1
  C  C267  1  0.53219000  0.24454000  0.48237000  1
  C  C268  1  0.39410000  0.08810000  0.40382000  1
  C  C269  1  0.25448000  0.17692000  0.41090000  1
  C  C270  1  0.33180000  0.21472000  0.42538000  1
  C  C271  1  0.27856000  0.83844000  0.37286000  1
  C  C272  1  0.42767000  0.84118000  0.35469000  1
  C  C273  1  0.39815000  0.94048000  0.35824000  1
  C  C274  1  0.04944000  0.96594000  0.37913000  1
  C  C275  1  0.13079000  0.95440000  0.41484000  1
  C  C276  1  0.03565000  0.91203000  0.41717000  1
  C  C277  1  0.18088000  0.48597000  0.34556000  1
  C  C278  1  0.18488000  0.50801000  0.30554000  1
  C  C279  1  0.24948000  0.57758000  0.31632000  1
  C  C280  1  0.15754000  0.18099000  0.35303000  1
  C  C281  1  0.15573000  0.11814000  0.31564000  1
  C  C282  1  0.20454000  0.04899000  0.33050000  1
  C  C283  1  0.26476000  0.61118000  0.41181000  1
  C  C284  1  0.26126000  0.59052000  0.43907000  1
  C  C285  1  0.18926000  0.64148000  0.45377000  1
  C  C286  1  0.18426000  0.62349000  0.47912000  1
  C  C287  1  0.24998000  0.55263000  0.49029000  1
  C  C288  1  0.32214000  0.50176000  0.47565000  1
  C  C289  1  0.32823000  0.52116000  0.45033000  1
  C  C290  1  0.24454000  0.53219000  0.51763000  1
  C  C291  1  0.60589000  0.91191000  0.90382000  1
  C  C292  1  0.74552000  0.82309000  0.91090000  1
  C  C293  1  0.66820000  0.78529000  0.92538000  1
  C  C294  1  0.72145000  0.16157000  0.87285000  1
  C  C295  1  0.57234000  0.15884000  0.85469000  1
  C  C296  1  0.60184000  0.05953000  0.85824000  1
  C  C297  1  0.95057000  0.03407000  0.87913000  1
  C  C298  1  0.86922000  0.04562000  0.91483000  1
  C  C299  1  0.96436000  0.08799000  0.91716000  1
  C  C300  1  0.81912000  0.51408000  0.84555000  1
  C  C301  1  0.81511000  0.49200000  0.80554000  1
  C  C302  1  0.75051000  0.42244000  0.81631000  1
  C  C303  1  0.84246000  0.81901000  0.85302000  1
  C  C304  1  0.84427000  0.88188000  0.81563000  1
  C  C305  1  0.79546000  0.95102000  0.83050000  1
  C  C306  1  0.73520000  0.38885000  0.91182000  1
  C  C307  1  0.73869000  0.40951000  0.93907000  1
  C  C308  1  0.81070000  0.35854000  0.95376000  1
  C  C309  1  0.81573000  0.37653000  0.97911000  1
  C  C310  1  0.75003000  0.44737000  0.99029000  1
  C  C311  1  0.67787000  0.49824000  0.97566000  1
  C  C312  1  0.67174000  0.47886000  0.95034000  1
  C  C313  1  0.75547000  0.46782000  0.01763000  1
  C  C314  1  0.58810000  0.10590000  0.15382000  1
  C  C315  1  0.67692000  0.24552000  0.16090000  1
  C  C316  1  0.71472000  0.16821000  0.17538000  1
  C  C317  1  0.33843000  0.22145000  0.12286000  1
  C  C318  1  0.34116000  0.07234000  0.10469000  1
  C  C319  1  0.44047000  0.10185000  0.10824000  1
  C  C320  1  0.46594000  0.45057000  0.12913000  1
  C  C321  1  0.45439000  0.36922000  0.16484000  1
  C  C322  1  0.41203000  0.46436000  0.16717000  1
  C  C323  1  0.98593000  0.31913000  0.09556000  1
  C  C324  1  0.00801000  0.31512000  0.05555000  1
  C  C325  1  0.07757000  0.25051000  0.06632000  1
  C  C326  1  0.68099000  0.34246000  0.10302000  1
  C  C327  1  0.61813000  0.34427000  0.06564000  1
  C  C328  1  0.54899000  0.29545000  0.08050000  1
  C  C329  1  0.11117000  0.23522000  0.16181000  1
  C  C330  1  0.09051000  0.23871000  0.18907000  1
  C  C331  1  0.14146000  0.31072000  0.20377000  1
  C  C332  1  0.12351000  0.31577000  0.22912000  1
  C  C333  1  0.05267000  0.25003000  0.24030000  1
  C  C334  1  0.00175000  0.17787000  0.22567000  1
  C  C335  1  0.02115000  0.17178000  0.20034000  1
  C  C336  1  0.03227000  0.25545000  0.26763000  1
  C  C337  1  0.41190000  0.89411000  0.65382000  1
  C  C338  1  0.32308000  0.75449000  0.66090000  1
  C  C339  1  0.28528000  0.83182000  0.67538000  1
  C  C340  1  0.66156000  0.77856000  0.62285000  1
  C  C341  1  0.65881000  0.92767000  0.60469000  1
  C  C342  1  0.55952000  0.89816000  0.60824000  1
  C  C343  1  0.53406000  0.54944000  0.62913000  1
  C  C344  1  0.54561000  0.63079000  0.66484000  1
  C  C345  1  0.58798000  0.53565000  0.66717000  1
  C  C346  1  0.01403000  0.68090000  0.59555000  1
  C  C347  1  0.99200000  0.68489000  0.55554000  1
  C  C348  1  0.92243000  0.74948000  0.56631000  1
  C  C349  1  0.31900000  0.65755000  0.60303000  1
  C  C350  1  0.38186000  0.65573000  0.56564000  1
  C  C351  1  0.45101000  0.70455000  0.58050000  1
  C  C352  1  0.88883000  0.76478000  0.66182000  1
  C  C353  1  0.90949000  0.76128000  0.68907000  1
  C  C354  1  0.85851000  0.68928000  0.70376000  1
  C  C355  1  0.87655000  0.68430000  0.72911000  1
  C  C356  1  0.94742000  0.74999000  0.74029000  1
  C  C357  1  0.99823000  0.82215000  0.72564000  1
  C  C358  1  0.97885000  0.82828000  0.70032000  1
  C  C359  1  0.96791000  0.74453000  0.76763000  1
  N  N360  1  0.20538000  0.59672000  0.85297000  1
  N  N361  1  0.08125000  0.65813000  0.82928000  1
  N  N362  1  0.19639000  0.43840000  0.87994000  1
  N  N363  1  0.14847000  0.27816000  0.88620000  1
  N  N364  1  0.36108000  0.48933000  0.85939000  1
  N  N365  1  0.51453000  0.41986000  0.85529000  1
  N  N366  1  0.35859000  0.95002000  0.92580000  1
  N  N367  1  0.25345000  0.06338000  0.90831000  1
  N  N368  1  0.29389000  0.58940000  0.89566000  1
  N  N369  1  0.37341000  0.70054000  0.92003000  1
  N  N370  1  0.79462000  0.40329000  0.35296000  1
  N  N371  1  0.91876000  0.34189000  0.32928000  1
  N  N372  1  0.80361000  0.56161000  0.37994000  1
  N  N373  1  0.85153000  0.72183000  0.38620000  1
  N  N374  1  0.63892000  0.51068000  0.35939000  1
  N  N375  1  0.48547000  0.58016000  0.35529000  1
  N  N376  1  0.64141000  0.04999000  0.42580000  1
  N  N377  1  0.74656000  0.93660000  0.40832000  1
  N  N378  1  0.70610000  0.41061000  0.39566000  1
  N  N379  1  0.62659000  0.29947000  0.42003000  1
  N  N380  1  0.90329000  0.70538000  0.10297000  1
  N  N381  1  0.84189000  0.58125000  0.07928000  1
  N  N382  1  0.06161000  0.69640000  0.12995000  1
  N  N383  1  0.22184000  0.64849000  0.13620000  1
  N  N384  1  0.01068000  0.86109000  0.10939000  1
  N  N385  1  0.08015000  0.01454000  0.10530000  1
  N  N386  1  0.55000000  0.85859000  0.17581000  1
  N  N387  1  0.43663000  0.75346000  0.15832000  1
  N  N388  1  0.91061000  0.79391000  0.14566000  1
  N  N389  1  0.79947000  0.87342000  0.17003000  1
  N  N390  1  0.09671000  0.29462000  0.60296000  1
  N  N391  1  0.15811000  0.41876000  0.57928000  1
  N  N392  1  0.93839000  0.30362000  0.62994000  1
  N  N393  1  0.77816000  0.35154000  0.63620000  1
  N  N394  1  0.98932000  0.13893000  0.60938000  1
  N  N395  1  0.91985000  0.98548000  0.60529000  1
  N  N396  1  0.45002000  0.14142000  0.67580000  1
  N  N397  1  0.56340000  0.24656000  0.65832000  1
  N  N398  1  0.08938000  0.20611000  0.64565000  1
  N  N399  1  0.20052000  0.12659000  0.67002000  1
  N  N400  1  0.29462000  0.09672000  0.39703000  1
  N  N401  1  0.41875000  0.15812000  0.42072000  1
  N  N402  1  0.30361000  0.93840000  0.37005000  1
  N  N403  1  0.35153000  0.77817000  0.36380000  1
  N  N404  1  0.13893000  0.98933000  0.39061000  1
  N  N405  1  0.98548000  0.91985000  0.39471000  1
  N  N406  1  0.14141000  0.45003000  0.32420000  1
  N  N407  1  0.24655000  0.56340000  0.34168000  1
  N  N408  1  0.20610000  0.08939000  0.35434000  1
  N  N409  1  0.12659000  0.20053000  0.32997000  1
  N  N410  1  0.70538000  0.90329000  0.89703000  1
  N  N411  1  0.58124000  0.84189000  0.92072000  1
  N  N412  1  0.69639000  0.06161000  0.87005000  1
  N  N413  1  0.64848000  0.22185000  0.86380000  1
  N  N414  1  0.86108000  0.01068000  0.89061000  1
  N  N415  1  0.01453000  0.08016000  0.89470000  1
  N  N416  1  0.85858000  0.55000000  0.82419000  1
  N  N417  1  0.75345000  0.43664000  0.84168000  1
  N  N418  1  0.79390000  0.91062000  0.85434000  1
  N  N419  1  0.87341000  0.79948000  0.82996000  1
  N  N420  1  0.59672000  0.20538000  0.14703000  1
  N  N421  1  0.65812000  0.08125000  0.17072000  1
  N  N422  1  0.43839000  0.19639000  0.12005000  1
  N  N423  1  0.27815000  0.14848000  0.11380000  1
  N  N424  1  0.48932000  0.36108000  0.14061000  1
  N  N425  1  0.41985000  0.51453000  0.14471000  1
  N  N426  1  0.95001000  0.35859000  0.07420000  1
  N  N427  1  0.06337000  0.25346000  0.09168000  1
  N  N428  1  0.58939000  0.29389000  0.10434000  1
  N  N429  1  0.70053000  0.37341000  0.07997000  1
  N  N430  1  0.40328000  0.79463000  0.64703000  1
  N  N431  1  0.34188000  0.91877000  0.67072000  1
  N  N432  1  0.56160000  0.80362000  0.62005000  1
  N  N433  1  0.72183000  0.85154000  0.61380000  1
  N  N434  1  0.51068000  0.63892000  0.64061000  1
  N  N435  1  0.58015000  0.48547000  0.64470000  1
  N  N436  1  0.04998000  0.64142000  0.57419000  1
  N  N437  1  0.93660000  0.74657000  0.59168000  1
  N  N438  1  0.41061000  0.70611000  0.60434000  1
  N  N439  1  0.29947000  0.62659000  0.57997000  1
  O  O440  1  0.32390000  0.08532000  0.72037000  1
  O  O441  1  0.19691000  0.96964000  0.72229000  1
  O  O442  1  0.15646000  0.07465000  0.84998000  1
  O  O443  1  0.30463000  0.16131000  0.84861000  1
  O  O444  1  0.67586000  0.91513000  0.22039000  1
  O  O445  1  0.80321000  0.03040000  0.22228000  1
  O  O446  1  0.84354000  0.92539000  0.34996000  1
  O  O447  1  0.69538000  0.83869000  0.34860000  1
  O  O448  1  0.41488000  0.82403000  0.97038000  1
  O  O449  1  0.53038000  0.69686000  0.97229000  1
  O  O450  1  0.42538000  0.65647000  0.09997000  1
  O  O451  1  0.33869000  0.80463000  0.09860000  1
  O  O452  1  0.58513000  0.17599000  0.47038000  1
  O  O453  1  0.46962000  0.30315000  0.47228000  1
  O  O454  1  0.57463000  0.34354000  0.59996000  1
  O  O455  1  0.66131000  0.19537000  0.59862000  1
  O  O456  1  0.17599000  0.58514000  0.52962000  1
  O  O457  1  0.30314000  0.46963000  0.52772000  1
  O  O458  1  0.34353000  0.57463000  0.40003000  1
  O  O459  1  0.19536000  0.66131000  0.40138000  1
  O  O460  1  0.82402000  0.41489000  0.02962000  1
  O  O461  1  0.69686000  0.53038000  0.02771000  1
  O  O462  1  0.65646000  0.42538000  0.90002000  1
  O  O463  1  0.80462000  0.33870000  0.90140000  1
  O  O464  1  0.08532000  0.32391000  0.27963000  1
  O  O465  1  0.96964000  0.19691000  0.27770000  1
  O  O466  1  0.07464000  0.15647000  0.15002000  1
  O  O467  1  0.16130000  0.30464000  0.15139000  1
  O  O468  1  0.91512000  0.67586000  0.77961000  1
  O  O469  1  0.03039000  0.80322000  0.77772000  1
  O  O470  1  0.92539000  0.84355000  0.65004000  1
  O  O471  1  0.83868000  0.69539000  0.65140000  1
