# generated using pymatgen
data_MnCrFeH22C26N4(ClO7)2
_symmetry_space_group_name_H-M   'P 1'
_cell_length_a   13.34829000
_cell_length_b   15.78827000
_cell_length_c   16.54921000
_cell_angle_alpha   89.95590000
_cell_angle_beta   89.96214000
_cell_angle_gamma   89.63082000
_symmetry_Int_Tables_number   1
_chemical_formula_structural   MnCrFeH22C26N4(ClO7)2
_chemical_formula_sum   'Mn4 Cr4 Fe4 H88 C104 N16 Cl8 O56'
_cell_volume   3487.61235602
_cell_formula_units_Z   4
loop_
 _symmetry_equiv_pos_site_id
 _symmetry_equiv_pos_as_xyz
  1  'x, y, z'
loop_
 _atom_site_type_symbol
 _atom_site_label
 _atom_site_symmetry_multiplicity
 _atom_site_fract_x
 _atom_site_fract_y
 _atom_site_fract_z
 _atom_site_occupancy
  Mn  Mn0  1  0.82556000  0.86078000  0.85477000  1
  Mn  Mn1  1  0.67447000  0.13921000  0.35484000  1
  Mn  Mn2  1  0.17360000  0.36062000  0.64528000  1
  Mn  Mn3  1  0.32620000  0.63961000  0.14462000  1
  Cr  Cr4  1  0.11436000  0.61688000  0.86445000  1
  Cr  Cr5  1  0.38559000  0.38366000  0.36435000  1
  Cr  Cr6  1  0.88668000  0.11707000  0.63587000  1
  Cr  Cr7  1  0.61351000  0.88303000  0.13597000  1
  Fe  Fe8  1  0.09614000  0.75442000  0.53028000  1
  Fe  Fe9  1  0.40525000  0.24482000  0.03145000  1
  Fe  Fe10  1  0.90651000  0.25293000  0.96976000  1
  Fe  Fe11  1  0.59366000  0.74707000  0.46967000  1
  H  H12  1  0.01651000  0.74985000  0.26546000  1
  H  H13  1  0.94586000  0.86823000  0.18219000  1
  H  H14  1  0.97786000  0.03853000  0.38306000  1
  H  H15  1  0.04550000  0.99591000  0.50354000  1
  H  H16  1  0.07279000  0.96869000  0.63416000  1
  H  H17  1  0.19696000  0.93344000  0.61770000  1
  H  H18  1  0.02616000  0.82972000  0.69033000  1
  H  H19  1  0.13662000  0.86316000  0.74144000  1
  H  H20  1  0.29075000  0.70223000  0.67420000  1
  H  H21  1  0.29284000  0.80971000  0.70292000  1
  H  H22  1  0.30531000  0.85637000  0.56091000  1
  H  H23  1  0.39341000  0.77375000  0.57461000  1
  H  H24  1  0.29840000  0.62657000  0.56552000  1
  H  H25  1  0.35111000  0.64046000  0.46740000  1
  H  H26  1  0.18152000  0.62993000  0.40661000  1
  H  H27  1  0.20226000  0.53869000  0.46762000  1
  H  H28  1  0.05567000  0.50963000  0.51774000  1
  H  H29  1  0.91322000  0.45553000  0.58314000  1
  H  H30  1  0.70871000  0.61799000  0.71234000  1
  H  H31  1  0.81210000  0.74368000  0.67573000  1
  H  H32  1  0.13143000  0.71394000  0.68454000  1
  H  H33  1  0.27312000  0.77079000  0.45555000  1
  H  H34  1  0.48283000  0.24948000  0.76699000  1
  H  H35  1  0.55388000  0.13170000  0.68323000  1
  H  H36  1  0.52347000  0.96026000  0.88374000  1
  H  H37  1  0.45446000  0.00303000  0.00554000  1
  H  H38  1  0.42590000  0.03079000  0.13605000  1
  H  H39  1  0.30238000  0.06735000  0.11859000  1
  H  H40  1  0.47411000  0.16965000  0.19133000  1
  H  H41  1  0.36298000  0.13737000  0.24250000  1
  H  H42  1  0.21199000  0.30048000  0.17471000  1
  H  H43  1  0.20774000  0.19349000  0.20502000  1
  H  H44  1  0.19437000  0.14485000  0.06390000  1
  H  H45  1  0.10717000  0.22824000  0.07665000  1
  H  H46  1  0.20220000  0.37460000  0.06462000  1
  H  H47  1  0.15042000  0.35938000  0.96650000  1
  H  H48  1  0.32037000  0.36793000  0.90640000  1
  H  H49  1  0.30033000  0.46041000  0.96570000  1
  H  H50  1  0.44499000  0.48968000  0.01751000  1
  H  H51  1  0.58674000  0.54453000  0.08406000  1
  H  H52  1  0.79227000  0.38254000  0.21260000  1
  H  H53  1  0.68973000  0.25652000  0.17591000  1
  H  H54  1  0.37073000  0.28636000  0.18512000  1
  H  H55  1  0.22759000  0.22858000  0.95710000  1
  H  H56  1  0.98513000  0.25818000  0.23347000  1
  H  H57  1  0.05593000  0.37513000  0.31731000  1
  H  H58  1  0.02441000  0.54687000  0.11712000  1
  H  H59  1  0.95384000  0.50699000  0.99642000  1
  H  H60  1  0.91679000  0.47952000  0.86521000  1
  H  H61  1  0.79652000  0.43839000  0.88475000  1
  H  H62  1  0.97321000  0.34056000  0.81124000  1
  H  H63  1  0.86235000  0.37269000  0.75954000  1
  H  H64  1  0.71494000  0.20653000  0.82128000  1
  H  H65  1  0.70541000  0.31572000  0.79972000  1
  H  H66  1  0.69700000  0.35153000  0.94466000  1
  H  H67  1  0.60990000  0.27003000  0.92686000  1
  H  H68  1  0.71304000  0.12000000  0.92775000  1
  H  H69  1  0.65135000  0.13218000  0.02294000  1
  H  H70  1  0.81472000  0.11855000  0.09323000  1
  H  H71  1  0.79792000  0.02837000  0.03108000  1
  H  H72  1  0.95056000  0.99698000  0.98086000  1
  H  H73  1  0.09482000  0.94698000  0.91786000  1
  H  H74  1  0.29230000  0.11029000  0.78493000  1
  H  H75  1  0.18590000  0.23497000  0.82202000  1
  H  H76  1  0.87337000  0.22313000  0.81187000  1
  H  H77  1  0.73128000  0.25975000  0.04372000  1
  H  H78  1  0.51554000  0.74169000  0.73334000  1
  H  H79  1  0.44407000  0.62481000  0.81734000  1
  H  H80  1  0.47476000  0.45330000  0.61709000  1
  H  H81  1  0.54587000  0.49312000  0.49639000  1
  H  H82  1  0.58310000  0.52071000  0.36524000  1
  H  H83  1  0.70348000  0.56168000  0.38453000  1
  H  H84  1  0.52686000  0.65969000  0.31117000  1
  H  H85  1  0.63778000  0.62765000  0.25945000  1
  H  H86  1  0.78516000  0.79358000  0.32073000  1
  H  H87  1  0.79460000  0.68437000  0.29945000  1
  H  H88  1  0.80317000  0.64861000  0.44432000  1
  H  H89  1  0.89025000  0.73012000  0.42622000  1
  H  H90  1  0.78700000  0.88016000  0.42724000  1
  H  H91  1  0.84878000  0.86803000  0.52232000  1
  H  H92  1  0.68529000  0.88115000  0.59282000  1
  H  H93  1  0.70209000  0.97161000  0.53082000  1
  H  H94  1  0.54928000  0.00296000  0.48039000  1
  H  H95  1  0.40506000  0.05284000  0.41684000  1
  H  H96  1  0.20767000  0.88896000  0.28493000  1
  H  H97  1  0.31470000  0.76453000  0.32189000  1
  H  H98  1  0.62675000  0.77708000  0.31163000  1
  H  H99  1  0.76915000  0.74031000  0.54340000  1
  C  C100  1  0.01511000  0.76952000  0.85532000  1
  C  C101  1  0.93351000  0.70131000  0.84837000  1
  C  C102  1  0.76809000  0.87153000  0.02590000  1
  C  C103  1  0.67073000  0.86826000  0.97627000  1
  C  C104  1  0.85312000  0.96049000  0.70717000  1
  C  C105  1  0.84012000  0.02619000  0.77512000  1
  C  C106  1  0.48475000  0.23069000  0.35534000  1
  C  C107  1  0.56641000  0.29883000  0.34834000  1
  C  C108  1  0.73223000  0.12845000  0.52583000  1
  C  C109  1  0.82963000  0.13174000  0.47614000  1
  C  C110  1  0.64691000  0.03964000  0.20707000  1
  C  C111  1  0.66000000  0.97387000  0.27505000  1
  C  C112  1  0.98467000  0.26968000  0.64476000  1
  C  C113  1  0.06685000  0.20120000  0.65171000  1
  C  C114  1  0.23068000  0.37245000  0.47423000  1
  C  C115  1  0.32821000  0.36865000  0.52387000  1
  C  C116  1  0.14643000  0.46026000  0.79313000  1
  C  C117  1  0.15816000  0.52587000  0.72496000  1
  C  C118  1  0.51546000  0.73045000  0.14431000  1
  C  C119  1  0.43318000  0.79901000  0.15024000  1
  C  C120  1  0.26879000  0.62758000  0.97431000  1
  C  C121  1  0.17131000  0.63149000  0.02401000  1
  C  C122  1  0.35349000  0.54025000  0.29198000  1
  C  C123  1  0.34193000  0.47420000  0.22445000  1
  C  C124  1  0.03636000  0.82534000  0.37243000  1
  C  C125  1  0.00744000  0.81304000  0.29066000  1
  C  C126  1  0.96915000  0.87889000  0.24435000  1
  C  C127  1  0.95915000  0.96042000  0.27817000  1
  C  C128  1  0.98615000  0.97546000  0.35737000  1
  C  C129  1  0.02517000  0.90873000  0.40563000  1
  C  C130  1  0.05451000  0.92930000  0.48618000  1
  C  C131  1  0.11859000  0.91265000  0.62019000  1
  C  C132  1  0.10587000  0.84360000  0.68295000  1
  C  C133  1  0.26644000  0.76591000  0.65612000  1
  C  C134  1  0.31286000  0.78861000  0.57428000  1
  C  C135  1  0.28414000  0.65120000  0.50464000  1
  C  C136  1  0.19335000  0.60770000  0.46881000  1
  C  C137  1  0.03986000  0.57500000  0.53606000  1
  C  C138  1  0.94959000  0.58928000  0.58106000  1
  C  C139  1  0.88972000  0.51876000  0.60140000  1
  C  C140  1  0.80282000  0.53008000  0.64616000  1
  C  C141  1  0.77502000  0.61069000  0.67472000  1
  C  C142  1  0.83197000  0.68073000  0.65400000  1
  C  C143  1  0.91838000  0.67264000  0.60458000  1
  C  C144  1  0.46387000  0.17319000  0.87392000  1
  C  C145  1  0.49221000  0.18617000  0.79204000  1
  C  C146  1  0.53079000  0.12072000  0.74546000  1
  C  C147  1  0.54148000  0.03910000  0.77914000  1
  C  C148  1  0.51472000  0.02346000  0.85839000  1
  C  C149  1  0.47551000  0.08980000  0.90701000  1
  C  C150  1  0.44603000  0.06955000  0.98772000  1
  C  C151  1  0.38106000  0.08724000  0.12146000  1
  C  C152  1  0.39424000  0.15640000  0.18397000  1
  C  C153  1  0.23478000  0.23619000  0.15743000  1
  C  C154  1  0.18757000  0.21285000  0.07617000  1
  C  C155  1  0.21697000  0.34890000  0.00426000  1
  C  C156  1  0.30839000  0.39135000  0.96816000  1
  C  C157  1  0.46106000  0.42446000  0.03620000  1
  C  C158  1  0.55107000  0.41055000  0.08169000  1
  C  C159  1  0.61044000  0.48128000  0.10217000  1
  C  C160  1  0.69749000  0.47018000  0.14672000  1
  C  C161  1  0.72586000  0.38966000  0.17516000  1
  C  C162  1  0.66938000  0.31945000  0.15442000  1
  C  C163  1  0.58294000  0.32728000  0.10509000  1
  C  C164  1  0.96561000  0.33495000  0.12674000  1
  C  C165  1  0.99415000  0.32139000  0.20831000  1
  C  C166  1  0.03279000  0.38643000  0.25514000  1
  C  C167  1  0.04313000  0.46774000  0.22157000  1
  C  C168  1  0.01588000  0.48367000  0.14226000  1
  C  C169  1  0.97646000  0.41823000  0.09368000  1
  C  C170  1  0.94516000  0.44014000  0.01302000  1
  C  C171  1  0.87652000  0.42148000  0.88138000  1
  C  C172  1  0.89277000  0.35278000  0.81814000  1
  C  C173  1  0.73554000  0.26955000  0.84323000  1
  C  C174  1  0.69015000  0.28496000  0.92680000  1
  C  C175  1  0.72137000  0.14299000  0.98981000  1
  C  C176  1  0.80881000  0.09699000  0.03028000  1
  C  C177  1  0.96480000  0.06354000  0.96582000  1
  C  C178  1  0.05474000  0.08013000  0.92003000  1
  C  C179  1  0.11617000  0.01034000  0.89898000  1
  C  C180  1  0.20189000  0.02193000  0.85281000  1
  C  C181  1  0.22685000  0.10245000  0.82335000  1
  C  C182  1  0.16796000  0.17200000  0.84431000  1
  C  C183  1  0.08286000  0.16356000  0.89491000  1
  C  C184  1  0.53460000  0.66501000  0.62667000  1
  C  C185  1  0.50614000  0.67855000  0.70826000  1
  C  C186  1  0.46717000  0.61358000  0.75514000  1
  C  C187  1  0.45633000  0.53237000  0.72156000  1
  C  C188  1  0.48361000  0.51642000  0.64226000  1
  C  C189  1  0.52343000  0.58180000  0.59366000  1
  C  C190  1  0.55473000  0.55993000  0.51298000  1
  C  C191  1  0.62350000  0.57868000  0.38129000  1
  C  C192  1  0.60728000  0.64746000  0.31805000  1
  C  C193  1  0.76452000  0.73060000  0.34288000  1
  C  C194  1  0.81001000  0.71519000  0.42638000  1
  C  C195  1  0.77873000  0.85713000  0.48934000  1
  C  C196  1  0.69120000  0.90299000  0.52990000  1
  C  C197  1  0.53519000  0.93640000  0.46539000  1
  C  C198  1  0.44543000  0.91970000  0.41948000  1
  C  C199  1  0.38385000  0.98937000  0.39828000  1
  C  C200  1  0.29804000  0.97753000  0.35237000  1
  C  C201  1  0.27327000  0.89697000  0.32308000  1
  C  C202  1  0.33246000  0.82758000  0.34400000  1
  C  C203  1  0.41744000  0.83622000  0.39460000  1
  N  N204  1  0.09053000  0.87711000  0.54058000  1
  N  N205  1  0.15537000  0.76564000  0.65246000  1
  N  N206  1  0.25938000  0.74262000  0.51025000  1
  N  N207  1  0.10507000  0.63283000  0.51644000  1
  N  N208  1  0.41036000  0.12221000  0.04188000  1
  N  N209  1  0.34593000  0.23486000  0.15323000  1
  N  N210  1  0.24119000  0.25753000  0.01136000  1
  N  N211  1  0.39619000  0.36647000  0.01647000  1
  N  N212  1  0.90795000  0.38788000  0.96030000  1
  N  N213  1  0.84672000  0.27260000  0.84591000  1
  N  N214  1  0.74548000  0.23451000  0.98768000  1
  N  N215  1  0.90042000  0.12097000  0.98790000  1
  N  N216  1  0.59218000  0.61216000  0.46027000  1
  N  N217  1  0.65335000  0.72760000  0.34573000  1
  N  N218  1  0.75481000  0.76557000  0.48737000  1
  N  N219  1  0.59962000  0.87905000  0.48755000  1
  Cl  Cl220  1  0.91438000  0.04356000  0.21837000  1
  Cl  Cl221  1  0.72578000  0.44348000  0.66666667  1
  Cl  Cl222  1  0.58684000  0.95668000  0.71874000  1
  Cl  Cl223  1  0.77425000  0.55698000  0.16673000  1
  Cl  Cl224  1  0.08812000  0.55008000  0.28179000  1
  Cl  Cl225  1  0.28040000  0.93561000  0.83190000  1
  Cl  Cl226  1  0.41060000  0.45020000  0.78175000  1
  Cl  Cl227  1  0.21909000  0.06361000  0.33155000  1
  O  O228  1  0.10590000  0.74186000  0.85717000  1
  O  O229  1  0.96623000  0.62457000  0.84523000  1
  O  O230  1  0.98935000  0.84598000  0.85689000  1
  O  O231  1  0.84348000  0.72454000  0.84525000  1
  O  O232  1  0.84971000  0.87046000  0.98832000  1
  O  O233  1  0.75731000  0.87857000  0.10283000  1
  O  O234  1  0.67612000  0.85828000  0.90106000  1
  O  O235  1  0.58951000  0.87885000  0.01678000  1
  O  O236  1  0.83843000  0.88369000  0.72287000  1
  O  O237  1  0.87953000  0.99077000  0.63835000  1
  O  O238  1  0.81850000  0.00062000  0.84465000  1
  O  O239  1  0.85359000  0.10391000  0.75378000  1
  O  O240  1  0.39399000  0.25842000  0.35721000  1
  O  O241  1  0.53381000  0.37560000  0.34522000  1
  O  O242  1  0.51047000  0.15418000  0.35696000  1
  O  O243  1  0.65644000  0.27550000  0.34523000  1
  O  O244  1  0.65062000  0.12945000  0.48829000  1
  O  O245  1  0.74288000  0.12152000  0.60277000  1
  O  O246  1  0.82412000  0.14169000  0.40093000  1
  O  O247  1  0.91089000  0.12122000  0.51659000  1
  O  O248  1  0.66152000  0.11642000  0.22282000  1
  O  O249  1  0.62052000  0.00943000  0.13829000  1
  O  O250  1  0.68156000  0.99938000  0.34454000  1
  O  O251  1  0.64648000  0.89616000  0.25381000  1
  O  O252  1  0.89419000  0.24211000  0.64286000  1
  O  O253  1  0.03492000  0.12453000  0.65479000  1
  O  O254  1  0.00997000  0.34598000  0.64312000  1
  O  O255  1  0.15662000  0.22427000  0.65485000  1
  O  O256  1  0.14876000  0.37117000  0.51138000  1
  O  O257  1  0.24214000  0.37922000  0.39727000  1
  O  O258  1  0.32333000  0.35824000  0.59905000  1
  O  O259  1  0.40938000  0.37880000  0.48333000  1
  O  O260  1  0.16118000  0.38337000  0.77728000  1
  O  O261  1  0.12107000  0.49066000  0.86221000  1
  O  O262  1  0.17709000  0.50020000  0.65500000  1
  O  O263  1  0.14644000  0.60385000  0.74647000  1
  O  O264  1  0.60598000  0.75796000  0.14293000  1
  O  O265  1  0.46519000  0.87559000  0.15458000  1
  O  O266  1  0.49014000  0.65414000  0.14302000  1
  O  O267  1  0.34328000  0.77615000  0.15153000  1
  O  O268  1  0.35062000  0.62868000  0.01146000  1
  O  O269  1  0.25764000  0.62096000  0.89735000  1
  O  O270  1  0.17631000  0.64180000  0.09916000  1
  O  O271  1  0.09020000  0.62152000  0.98348000  1
  O  O272  1  0.33867000  0.61693000  0.27485000  1
  O  O273  1  0.37886000  0.51079000  0.36140000  1
  O  O274  1  0.32294000  0.49960000  0.15445000  1
  O  O275  1  0.35379000  0.39635000  0.24645000  1
  O  O276  1  0.07100000  0.76032000  0.41337000  1
  O  O277  1  0.96407000  0.74128000  0.57913000  1
  O  O278  1  0.42910000  0.23789000  0.91520000  1
  O  O279  1  0.53793000  0.25850000  0.07940000  1
  O  O280  1  0.93116000  0.27100000  0.08419000  1
  O  O281  1  0.03553000  0.23245000  0.91955000  1
  O  O282  1  0.56938000  0.72894000  0.58412000  1
  O  O283  1  0.46455000  0.76740000  0.41970000  1
