# generated using pymatgen
data_H16C20N5O2
_symmetry_space_group_name_H-M   'P 1'
_cell_length_a   15.68230000
_cell_length_b   15.68230000
_cell_length_c   62.72950000
_cell_angle_alpha   90.00000000
_cell_angle_beta   90.00000000
_cell_angle_gamma   90.00000000
_symmetry_Int_Tables_number   1
_chemical_formula_structural   H16C20N5O2
_chemical_formula_sum   'H128 C160 N40 O16'
_cell_volume   15427.35030602
_cell_formula_units_Z   8
loop_
 _symmetry_equiv_pos_site_id
 _symmetry_equiv_pos_as_xyz
  1  'x, y, z'
loop_
 _atom_site_type_symbol
 _atom_site_label
 _atom_site_symmetry_multiplicity
 _atom_site_fract_x
 _atom_site_fract_y
 _atom_site_fract_z
 _atom_site_occupancy
  C  1  1  0.00957300  0.07875500  0.08185800  1
  C  3  1  0.05442300  0.05238100  0.26587300  1
  C  4  1  0.04976800  0.05930600  0.24363800  1
  C  6  1  0.15011700  0.13802100  0.25570800  1
  C  8  1  0.22353300  0.19667900  0.25605800  1
  C  9  1  0.20419000  0.27891300  0.26868700  1
  C  13  1  0.01502900  0.16672100  0.08710300  1
  C  17  1  0.99682300  0.03885200  0.12063700  1
  C  18  1  0.00103100  0.01776400  0.09845300  1
  C  20  1  0.00536100  0.19143200  0.10875800  1
  C  21  1  0.99580900  0.12835300  0.12473200  1
  C  28  1  0.35365100  0.05948000  0.01008300  1
  C  30  1  0.99042700  0.01310100  0.23114300  1
  C  31  1  0.99017200  0.01993000  0.20893500  1
  C  61  1  0.01587700  0.99702100  0.02800300  1
  C  62  1  0.08868300  0.99733900  0.01461800  1
  C  64  1  0.02152700  0.98926700  0.05008200  1
  C  66  1  0.05201200  0.54681800  0.11491200  1
  C  67  1  0.04484500  0.45794700  0.11543600  1
  C  70  1  0.14238700  0.49541700  0.09330100  1
  C  71  1  0.22517500  0.48471500  0.08242800  1
  C  72  1  0.25614000  0.56541100  0.07062900  1
  C  77  1  0.01200000  0.68914500  0.12809300  1
  C  116  1  0.99125600  0.97571000  0.13751200  1
  C  117  1  0.99547400  0.88630100  0.13341800  1
  C  118  1  0.98389100  0.82296500  0.14923800  1
  C  119  1  0.97007900  0.84725300  0.17077500  1
  C  120  1  0.97437700  0.93517400  0.17614400  1
  C  121  1  0.98348900  0.99653000  0.15965400  1
  C  129  1  0.93512300  0.95880900  0.24280100  1
  C  130  1  0.93979100  0.95190600  0.26508000  1
  C  131  1  0.99900700  0.99849700  0.27760800  1
  C  134  1  0.84283400  0.86937100  0.25280100  1
  C  135  1  0.77251300  0.80700400  0.25235700  1
  C  136  1  0.79573000  0.72628600  0.23951400  1
  C  144  1  0.93633100  0.99706500  0.01733200  1
  C  146  1  0.80525000  0.99169600  0.00806200  1
  C  147  1  0.71189100  0.98288400  0.00973500  1
  C  151  1  0.00448100  0.59953200  0.12885900  1
  C  152  1  0.98942000  0.41453600  0.12959300  1
  C  153  1  0.94213400  0.46720700  0.14361200  1
  C  154  1  0.94936200  0.55611500  0.14309600  1
  C  156  1  0.85233900  0.51867900  0.16532900  1
  C  158  1  0.77150200  0.52907100  0.17711000  1
  C  159  1  0.74044500  0.44715900  0.18836000  1
  C  166  1  0.98151600  0.32494400  0.13022000  1
  C  393  1  0.02158500  0.03743500  0.88891200  1
  C  394  1  0.01040000  0.18986700  0.90072000  1
  C  395  1  0.02016200  0.12685500  0.88473700  1
  C  398  1  0.05837000  0.04988200  0.42570300  1
  C  402  1  0.03338700  0.10102200  0.49182500  1
  C  405  1  0.05125400  0.23339700  0.49883300  1
  C  407  1  0.01967700  0.02089400  0.38750100  1
  C  408  1  0.14670400  0.05066800  0.42073800  1
  C  409  1  0.17213400  0.02971400  0.39963500  1
  C  410  1  0.10932600  0.01416700  0.38384200  1
  C  414  1  0.02554800  0.01892500  0.48254400  1
  C  415  1  0.01491900  0.01405800  0.60003900  1
  C  416  1  0.01847200  0.01626600  0.91109200  1
  C  419  1  0.03356600  0.01201200  0.77896600  1
  C  420  1  0.04069400  0.01996300  0.80114700  1
  C  421  1  0.02428800  0.04656700  0.52869900  1
  C  422  1  0.03323900  0.11450200  0.51394300  1
  C  423  1  0.02665900  0.05956300  0.55074800  1
  C  426  1  0.95415100  0.02301800  0.58347900  1
  C  430  1  0.00927600  0.07724500  0.92766300  1
  C  431  1  0.00217300  0.16509100  0.92240700  1
  C  437  1  0.99785000  0.03707800  0.40926900  1
  C  440  1  0.97917200  0.06659400  0.76711600  1
  C  441  1  0.97218700  0.06108500  0.74489400  1
  C  443  1  0.89198200  0.16060600  0.75674800  1
  C  445  1  0.83135900  0.23241900  0.75694400  1
  C  446  1  0.74911700  0.21073200  0.76933100  1
  C  454  1  0.66416200  0.05716500  0.99885800  1
  C  462  1  0.43234500  0.01368400  0.63002100  1
  C  463  1  0.48478600  0.06158400  0.61608400  1
  C  464  1  0.57367600  0.05450700  0.61647700  1
  C  467  1  0.53555200  0.15165900  0.59427600  1
  C  468  1  0.54522900  0.23414100  0.58320900  1
  C  469  1  0.46422800  0.26363200  0.57129900  1
  C  474  1  0.34271700  0.02137300  0.62943300  1
  C  476  1  0.58119400  0.01934400  0.37953000  1
  C  477  1  0.52908000  0.06891800  0.39318200  1
  C  478  1  0.44015100  0.06145100  0.39307200  1
  C  481  1  0.47875500  0.16204800  0.41416400  1
  C  482  1  0.46918200  0.24511000  0.42497600  1
  C  483  1  0.55090100  0.27626500  0.43629900  1
  C  487  1  0.67080600  0.02769200  0.37980600  1
  C  489  1  0.86604500  0.02731000  0.58851500  1
  C  490  1  0.84094300  0.01768200  0.61013600  1
  C  494  1  0.95685400  0.01045600  0.37069300  1
  C  495  1  0.86725300  0.01313500  0.37460400  1
  C  586  1  0.05653500  0.00312000  0.63903300  1
  C  587  1  0.14597300  0.00663700  0.63494100  1
  C  588  1  0.20926100  0.99398900  0.65071500  1
  C  589  1  0.18481000  0.97989000  0.67223100  1
  C  590  1  0.09691600  0.98496200  0.67761300  1
  C  591  1  0.03561800  0.99506300  0.66114900  1
  C  596  1  0.02799000  0.97420500  0.87210400  1
  C  597  1  0.01991800  0.88502800  0.87612600  1
  C  598  1  0.03236400  0.82141200  0.86041100  1
  C  599  1  0.05008800  0.84534700  0.83901700  1
  C  612  1  0.01866400  0.00157000  0.73252800  1
  C  613  1  0.07306000  0.94678900  0.74429300  1
  C  614  1  0.08013400  0.95232700  0.76655400  1
  C  617  1  0.16179200  0.85418500  0.75445700  1
  C  618  1  0.22267000  0.78256200  0.75416100  1
  C  622  1  0.01178300  0.00038100  0.71033300  1
  C  623  1  0.08153700  0.99730800  0.99233900  1
  C  625  1  0.21264100  0.99251200  0.00158500  1
  C  629  1  0.06983400  0.32463300  0.49559500  1
  C  633  1  0.02993600  0.00205200  0.46065100  1
  C  635  1  0.02419200  0.41294100  0.87984700  1
  C  636  1  0.07208100  0.46578600  0.86600100  1
  C  637  1  0.06506000  0.55468000  0.86662100  1
  C  639  1  0.16331000  0.51747800  0.84464300  1
  C  641  1  0.24614600  0.52837200  0.83380400  1
  C  642  1  0.27634100  0.44837500  0.82159500  1
  C  646  1  0.03227100  0.32336800  0.87918000  1
  C  718  1  0.05040500  0.93341100  0.83368200  1
  C  719  1  0.04137000  0.99491300  0.85014000  1
  C  722  1  0.01737500  0.95097200  0.49734800  1
  C  723  1  0.01657800  0.96462100  0.51940700  1
  C  726  1  0.01548700  0.73888300  0.51673200  1
  C  749  1  0.99343700  0.00948300  0.62218100  1
  C  752  1  0.90382000  0.00842800  0.62619400  1
  C  768  1  0.80444400  0.99799000  0.35884400  1
  C  769  1  0.82967900  0.98075400  0.33752100  1
  C  770  1  0.91776900  0.98494300  0.33225400  1
  C  771  1  0.97842300  0.99843000  0.34873700  1
  C  778  1  0.00621600  0.99105800  0.29978100  1
  C  779  1  0.30314800  0.80303100  0.74093900  1
  C  783  1  0.00200100  0.99653900  0.98167300  1
  C  784  1  0.92921800  0.99670200  0.99505400  1
  C  788  1  0.30598500  0.98363600  0.99989100  1
  C  790  1  0.99618500  0.98894500  0.95962200  1
  C  795  1  0.00601200  0.83107300  0.51268100  1
  C  798  1  0.98061400  0.68241800  0.49854100  1
  C  802  1  0.00410500  0.38300900  0.50666800  1
  C  805  1  0.61742400  0.99912800  0.63058200  1
  C  806  1  0.56500400  0.95118600  0.64452300  1
  C  807  1  0.47607100  0.95798900  0.64405000  1
  C  809  1  0.51401700  0.86029300  0.66603900  1
  C  811  1  0.50403100  0.77832500  0.67734400  1
  C  812  1  0.58555000  0.74774600  0.68884700  1
  C  819  1  0.70707000  0.99191600  0.63127900  1
  C  821  1  0.00889400  0.59796600  0.88062900  1
  C  822  1  0.96071500  0.54504000  0.89438800  1
  C  823  1  0.96824300  0.45618100  0.89390700  1
  C  826  1  0.86943700  0.49331200  0.91574700  1
  C  829  1  0.78604700  0.48296900  0.92633800  1
  C  830  1  0.75524500  0.56345600  0.93825600  1
  C  836  1  0.00130600  0.68760200  0.88141800  1
  C  838  1  0.39608000  0.00343200  0.37970800  1
  C  839  1  0.44827400  0.95348700  0.36615200  1
  C  840  1  0.53715700  0.96140700  0.36615000  1
  C  842  1  0.49879000  0.86031900  0.34519000  1
  C  844  1  0.50869900  0.77680400  0.33461800  1
  C  845  1  0.42719200  0.74489900  0.32333600  1
  C  853  1  0.30638700  0.99570100  0.37927500  1
  H  2  1  0.03386500  0.21112300  0.05662400  1
  H  10  1  0.24145000  0.21390200  0.23977600  1
  H  11  1  0.27754600  0.16387700  0.26337400  1
  H  12  1  0.18905200  0.26398400  0.28526900  1
  H  15  1  0.03015300  0.28712400  0.07467500  1
  H  16  1  0.01096500  0.07339900  0.20222900  1
  H  23  1  0.98412400  0.05833300  0.16447900  1
  H  25  1  0.99099500  0.15043600  0.13989600  1
  H  29  1  0.42231000  0.05027200  0.00840000  1
  H  33  1  0.33860300  0.06432400  0.02704000  1
  H  59  1  0.15047800  0.31290400  0.26157600  1
  H  60  1  0.25988500  0.32066100  0.26842600  1
  H  65  1  0.06769400  0.95183000  0.05554600  1
  H  73  1  0.21979500  0.43265300  0.07092000  1
  H  74  1  0.27294500  0.46688200  0.09429700  1
  H  75  1  0.20950100  0.58503800  0.05867600  1
  H  76  1  0.26610100  0.61770700  0.08185600  1
  H  78  1  0.04581300  0.71695700  0.11600900  1
  H  115  1  0.99520000  0.95617200  0.09362200  1
  H  123  1  0.95453300  0.72639400  0.18293800  1
  H  124  1  0.94768100  0.80185800  0.20102500  1
  H  125  1  0.00537100  0.86450200  0.11838100  1
  H  137  1  0.71676900  0.83728700  0.24517500  1
  H  138  1  0.75576800  0.78827600  0.26861400  1
  H  139  1  0.80902500  0.74245400  0.22291100  1
  H  140  1  0.74248500  0.68146100  0.23988700  1
  H  141  1  0.85166600  0.69516500  0.24637400  1
  H  148  1  0.69300000  0.98008400  0.02649700  1
  H  149  1  0.32495600  0.92478000  0.00790200  1
  H  160  1  0.72237400  0.54991300  0.16591400  1
  H  161  1  0.77981700  0.57902700  0.18908300  1
  H  162  1  0.72757700  0.39705600  0.17670000  1
  H  163  1  0.68164600  0.46042100  0.19706700  1
  H  164  1  0.78838100  0.42450800  0.19963700  1
  H  165  1  0.31652200  0.55210500  0.06263000  1
  H  167  1  0.94789900  0.29709900  0.14233600  1
  H  396  1  0.02190300  0.14871500  0.86950500  1
  H  399  1  0.18879000  0.08470000  0.45053900  1
  H  401  1  0.05523300  0.01981600  0.30678100  1
  H  406  1  0.16783300  0.01663600  0.61991800  1
  H  412  1  0.26626000  0.06936200  0.43324800  1
  H  417  1  0.04737900  0.05671300  0.84552500  1
  H  424  1  0.04347300  0.11691900  0.55608200  1
  H  427  1  0.82307900  0.04484000  0.55788800  1
  H  434  1  0.98568600  0.28530800  0.93484900  1
  H  435  1  0.98414600  0.20934900  0.95293200  1
  H  438  1  0.93577300  0.03978100  0.41395900  1
  H  447  1  0.81436300  0.24989200  0.74061700  1
  H  448  1  0.86234000  0.28729700  0.76435400  1
  H  449  1  0.71694400  0.15615000  0.76210100  1
  H  450  1  0.70585800  0.26525300  0.76896900  1
  H  451  1  0.76369400  0.19588600  0.78594800  1
  H  453  1  0.00831400  0.06672300  0.80814300  1
  H  455  1  0.68158300  0.11785100  0.00619700  1
  H  456  1  0.59550300  0.04807700  0.00058900  1
  H  457  1  0.33607300  0.11905600  0.00221200  1
  H  470  1  0.59741600  0.22896400  0.57173100  1
  H  471  1  0.56241100  0.28257300  0.59496800  1
  H  472  1  0.44523900  0.21625500  0.55946300  1
  H  473  1  0.41174300  0.27342800  0.58248100  1
  H  475  1  0.31478500  0.05591600  0.61749800  1
  H  484  1  0.41813700  0.24005200  0.43677400  1
  H  485  1  0.57153300  0.22984900  0.44820100  1
  H  486  1  0.60221800  0.28595700  0.42477800  1
  H  488  1  0.69890500  0.06421700  0.39134100  1
  H  492  1  0.74611400  0.04024100  0.57570100  1
  H  496  1  0.84483000  0.02278800  0.38959000  1
  H  497  1  0.95803400  0.02031500  0.70360600  1
  H  498  1  0.67931200  0.05961400  0.98187200  1
  H  585  1  0.07645200  0.00763800  0.59515400  1
  H  593  1  0.22997700  0.95613100  0.70242900  1
  H  601  1  0.06193500  0.72406000  0.82686500  1
  H  608  1  0.04039500  0.99994100  0.34407600  1
  H  610  1  0.13165600  0.99961600  0.36909400  1
  H  619  1  0.19085100  0.72693300  0.74734700  1
  H  620  1  0.24189000  0.76667200  0.77043500  1
  H  621  1  0.28635300  0.81535700  0.72432600  1
  H  627  1  0.08309200  0.72489200  0.51903700  1
  H  628  1  0.01610600  0.69362200  0.48382700  1
  H  630  1  0.13309200  0.33800400  0.50206100  1
  H  631  1  0.02012200  0.44961300  0.50360700  1
  H  632  1  0.00453500  0.37258300  0.52388300  1
  H  634  1  0.04251100  0.94229700  0.45624500  1
  H  643  1  0.24116300  0.58135500  0.82255000  1
  H  644  1  0.28591400  0.39511100  0.83255500  1
  H  645  1  0.22946100  0.43011200  0.80956500  1
  H  647  1  0.06655900  0.29561900  0.86716800  1
  H  648  1  0.27835700  0.95908600  0.36774900  1
  H  717  1  0.02683900  0.95486500  0.91589000  1
  H  720  1  0.07471800  0.79933000  0.80893700  1
  H  727  1  0.07084300  0.33923500  0.47855500  1
  H  754  1  0.97380700  0.99641500  0.66595300  1
  H  755  1  0.30550700  0.96267000  0.68433900  1
  H  757  1  0.88152100  0.00333300  0.64133300  1
  H  764  1  0.00592200  0.86379700  0.89102500  1
  H  773  1  0.70931400  0.96146800  0.32539700  1
  H  774  1  0.78531400  0.95238400  0.30750500  1
  H  780  1  0.34684700  0.74887800  0.74142800  1
  H  781  1  0.33581000  0.85881700  0.74741300  1
  H  786  1  0.69320400  0.92296900  0.00219300  1
  H  789  1  0.32460700  0.97867200  0.98314200  1
  H  791  1  0.94969300  0.95248600  0.95387900  1
  H  799  1  0.98171700  0.72261000  0.53142200  1
  H  800  1  0.91321900  0.69589800  0.49575600  1
  H  801  1  0.98723900  0.61533000  0.50285500  1
  H  804  1  0.94008400  0.37068900  0.50055600  1
  H  813  1  0.48494500  0.72981500  0.66578800  1
  H  814  1  0.45299200  0.78476900  0.68910200  1
  H  815  1  0.63682200  0.73673700  0.67738700  1
  H  816  1  0.57262600  0.68800100  0.69717600  1
  H  817  1  0.60641500  0.79510500  0.70048700  1
  H  818  1  0.47684600  0.32382800  0.56314700  1
  H  820  1  0.73505700  0.95830800  0.64337700  1
  H  827  1  0.29410000  0.54489300  0.84574600  1
  H  828  1  0.33678400  0.46179900  0.81363700  1
  H  831  1  0.79039900  0.43040100  0.93772800  1
  H  832  1  0.73871100  0.46603900  0.91428000  1
  H  833  1  0.80151400  0.58219100  0.95038800  1
  H  834  1  0.69439900  0.55035700  0.94605100  1
  H  835  1  0.74624100  0.61629000  0.92713500  1
  H  837  1  0.96657500  0.71537900  0.89334100  1
  H  846  1  0.52756100  0.72989800  0.34660300  1
  H  847  1  0.55985100  0.78145900  0.32283900  1
  H  848  1  0.37577600  0.73562400  0.33485100  1
  H  849  1  0.44000900  0.68400600  0.31553300  1
  H  850  1  0.40657700  0.79068900  0.31128100  1
  H  851  1  0.45033200  0.29260100  0.41313800  1
  H  852  1  0.53833200  0.33681200  0.44429200  1
  N  5  1  0.11098500  0.11314000  0.23768700  1
  N  14  1  0.02594000  0.22666600  0.07149100  1
  N  26  1  0.00396500  0.27620100  0.11334400  1
  N  27  1  0.00606900  0.05740100  0.06112000  1
  N  68  1  0.10387800  0.42759500  0.10220800  1
  N  122  1  0.95747600  0.78683500  0.18620800  1
  N  126  1  0.97418300  0.95528600  0.19695800  1
  N  127  1  0.98721300  0.73828000  0.14467500  1
  N  132  1  0.88116400  0.89503300  0.27086800  1
  N  145  1  0.85739500  0.99327800  0.02508900  1
  N  155  1  0.89073200  0.58650100  0.15643000  1
  N  397  1  0.01053900  0.27465100  0.89612300  1
  N  400  1  0.03069600  0.06041600  0.44578700  1
  N  403  1  0.04521600  0.17692300  0.48277300  1
  N  411  1  0.20550900  0.06833600  0.43619100  1
  N  413  1  0.25711700  0.02505800  0.39539200  1
  N  418  1  0.01407200  0.05601600  0.94837900  1
  N  428  1  0.97735500  0.01473600  0.56304800  1
  N  432  1  0.99091200  0.22492000  0.93803300  1
  N  442  1  0.91735100  0.12118600  0.73881400  1
  N  465  1  0.60359500  0.11343100  0.60315500  1
  N  479  1  0.41046000  0.12213600  0.40592200  1
  N  491  1  0.80677400  0.03685000  0.57270400  1
  N  493  1  0.75603600  0.01532800  0.61452800  1
  N  592  1  0.24511000  0.96627600  0.68763200  1
  N  595  1  0.07676500  0.98502000  0.69841800  1
  N  600  1  0.06275700  0.78462900  0.82366900  1
  N  602  1  0.02771800  0.73682300  0.86501000  1
  N  615  1  0.13655800  0.89340700  0.77244200  1
  N  624  1  0.16043900  0.99343100  0.98457100  1
  N  638  1  0.12461700  0.58514800  0.85356100  1
  N  721  1  0.05913600  0.95456200  0.81302100  1
  N  724  1  0.01182700  0.88820400  0.52858300  1
  N  758  1  0.29396100  0.99655500  0.64609400  1
  N  772  1  0.76984500  0.96439100  0.32218000  1
  N  776  1  0.93942100  0.97755300  0.31158200  1
  N  777  1  0.71956800  0.00047700  0.36336000  1
  N  808  1  0.44598400  0.89879500  0.65726800  1
  N  824  1  0.90850700  0.42567000  0.90691000  1
  N  841  1  0.56700000  0.90054300  0.35337900  1
  O  7  1  0.11811300  0.10192300  0.27391300  1
  O  63  1  0.17166500  0.99364700  0.02090200  1
  O  69  1  0.11542200  0.57196900  0.10148500  1
  O  133  1  0.87305600  0.90757000  0.23466300  1
  O  157  1  0.87916800  0.44200500  0.15718000  1
  O  404  1  0.04525400  0.19824800  0.51877100  1
  O  444  1  0.92868900  0.12985300  0.77501700  1
  O  466  1  0.45923000  0.12469400  0.60262000  1
  O  480  1  0.55493700  0.13418300  0.40596100  1
  O  616  1  0.12368500  0.88399900  0.73627300  1
  O  640  1  0.13615000  0.44083300  0.85273300  1
  O  725  1  0.01372000  0.86614100  0.49274300  1
  O  785  1  0.84628700  0.99249300  0.98875700  1
  O  810  1  0.59051700  0.88769100  0.65790000  1
  O  825  1  0.89664600  0.56996500  0.90763900  1
  O  843  1  0.42252600  0.88820700  0.35335900  1
