# generated using pymatgen
data_CdH2C10(O2F3)2
_symmetry_space_group_name_H-M   'P 1'
_cell_length_a   12.90076980
_cell_length_b   12.90076980
_cell_length_c   12.90076980
_cell_angle_alpha   106.98503597
_cell_angle_beta   106.98503597
_cell_angle_gamma   114.56694261
_symmetry_Int_Tables_number   1
_chemical_formula_structural   CdH2C10(O2F3)2
_chemical_formula_sum   'Cd4 H8 C40 O16 F24'
_cell_volume   1642.92376672
_cell_formula_units_Z   4
loop_
 _symmetry_equiv_pos_site_id
 _symmetry_equiv_pos_as_xyz
  1  'x, y, z'
loop_
 _atom_site_type_symbol
 _atom_site_label
 _atom_site_symmetry_multiplicity
 _atom_site_fract_x
 _atom_site_fract_y
 _atom_site_fract_z
 _atom_site_occupancy
  C  C1  1  0.44993700  0.53478600  0.70700700  1.0
  C  C2  1  0.54988100  0.46503100  0.29299200  1.0
  C  C3  1  0.74293000  0.44993700  0.91515100  1.0
  C  C4  1  0.25688900  0.54988100  0.08485000  1.0
  C  C5  1  0.82777900  0.74293000  0.29299300  1.0
  C  C6  1  0.17203900  0.25688900  0.70700800  1.0
  C  C7  1  0.53478600  0.82777900  0.08484900  1.0
  C  C8  1  0.46503100  0.17203900  0.91515000  1.0
  C  C17  1  0.48475800  0.08891100  0.96610300  1.0
  C  C18  1  0.51506100  0.91090900  0.03389800  1.0
  C  C19  1  0.51865500  0.48475800  0.39584700  1.0
  C  C20  1  0.48116300  0.51506100  0.60415200  1.0
  C  C21  1  0.12280800  0.51865500  0.03389700  1.0
  C  C22  1  0.87701100  0.48116300  0.96610200  1.0
  C  C23  1  0.08891100  0.12280800  0.60415300  1.0
  C  C24  1  0.91090900  0.87701100  0.39584800  1.0
  C  C33  1  0.46048600  0.97165300  0.08059300  1.0
  C  C34  1  0.53933300  0.02816700  0.91940800  1.0
  C  C35  1  0.37989300  0.46048600  0.48883300  1.0
  C  C36  1  0.61992500  0.53933300  0.51116600  1.0
  C  C37  1  0.89106000  0.37989300  0.91940700  1.0
  C  C38  1  0.10875900  0.61992500  0.08059200  1.0
  C  C39  1  0.97165300  0.89106000  0.51116700  1.0
  C  C40  1  0.02816700  0.10875900  0.48883400  1.0
  C  C49  1  0.44235800  0.05802100  0.04755100  1.0
  C  C50  1  0.55746100  0.94179900  0.95245000  1.0
  C  C51  1  0.39480700  0.44235800  0.38433700  1.0
  C  C52  1  0.60501100  0.55746100  0.61566200  1.0
  C  C53  1  0.01047000  0.39480700  0.95244900  1.0
  C  C54  1  0.98934900  0.60501100  0.04755000  1.0
  C  C55  1  0.05802100  0.01047000  0.61566300  1.0
  C  C56  1  0.94179900  0.98934900  0.38433800  1.0
  C  C65  1  0.36794300  0.10157500  0.09753800  1.0
  C  C66  1  0.63187500  0.89824450  0.90246150  1.0
  C  C67  1  0.27040500  0.36794300  0.26636800  1.0
  C  C68  1  0.72941300  0.63187500  0.73363000  1.0
  C  C69  1  0.00403700  0.27040500  0.90246200  1.0
  C  C70  1  0.99578300  0.72941400  0.09753900  1.0
  C  C71  1  0.10157500  0.00403700  0.73363200  1.0
  C  C72  1  0.89824400  0.99578300  0.26636900  1.0
  Cd  Cd1  1  0.32614000  0.52920100  0.85552300  1.0
  Cd  Cd2  1  0.67367800  0.47061700  0.14447700  1.0
  Cd  Cd3  1  0.47061650  0.32614000  0.79693850  1.0
  Cd  Cd4  1  0.52920100  0.67367800  0.20306100  1.0
  F  F1  1  0.43475300  0.16367700  0.22476200  1.0
  F  F2  1  0.24961000  0.99347200  0.05825800  1.0
  F  F3  1  0.34527700  0.18250800  0.05989100  1.0
  F  F4  1  0.65454300  0.81731400  0.94010900  1.0
  F  F5  1  0.75020750  0.00634900  0.94174050  1.0
  F  F6  1  0.56506400  0.83614300  0.77523700  1.0
  F  F7  1  0.20999100  0.43475300  0.27107600  1.0
  F  F8  1  0.19135200  0.24961000  0.25613800  1.0
  F  F9  1  0.28538600  0.34527700  0.16276900  1.0
  F  F10  1  0.71443400  0.65454300  0.83722900  1.0
  F  F11  1  0.80846700  0.75020800  0.74385900  1.0
  F  F12  1  0.78982700  0.56506400  0.72892100  1.0
  F  F13  1  0.93891500  0.20999100  0.77523800  1.0
  F  F14  1  0.93521400  0.19135250  0.94174250  1.0
  F  F15  1  0.12261700  0.28538600  0.94010900  1.0
  F  F16  1  0.87720500  0.71443400  0.05989100  1.0
  F  F17  1  0.06460800  0.80846700  0.05825900  1.0
  F  F18  1  0.06090550  0.78982700  0.22476250  1.0
  F  F19  1  0.16367700  0.93891500  0.72892400  1.0
  F  F20  1  0.99347100  0.93521400  0.74386100  1.0
  F  F21  1  0.18250800  0.12261700  0.83723100  1.0
  F  F22  1  0.81731400  0.87720500  0.16277100  1.0
  F  F23  1  0.00634900  0.06460900  0.25614200  1.0
  F  F24  1  0.83614300  0.06090600  0.27107900  1.0
  H  H1  1  0.42735800  0.94804300  0.14333100  1.0
  H  H2  1  0.57246000  0.05177700  0.85666900  1.0
  H  H3  1  0.28402700  0.42735800  0.47931500  1.0
  H  H4  1  0.71579100  0.57246050  0.52068350  1.0
  H  H5  1  0.80471200  0.28402700  0.85666900  1.0
  H  H6  1  0.19510700  0.71579100  0.14333000  1.0
  H  H7  1  0.94804300  0.80471200  0.52068500  1.0
  H  H8  1  0.05177700  0.19510750  0.47931650  1.0
  O  O1  1  0.49332900  0.51176200  0.79774500  1.0
  O  O2  1  0.50649100  0.48805800  0.20225500  1.0
  O  O3  1  0.69558400  0.49332900  0.98156700  1.0
  O  O4  1  0.30423600  0.50649100  0.01843300  1.0
  O  O5  1  0.71401700  0.69558400  0.20225500  1.0
  O  O6  1  0.28580300  0.30423600  0.79774500  1.0
  O  O7  1  0.51176200  0.71401700  0.01843300  1.0
  O  O8  1  0.48805800  0.28580300  0.98156700  1.0
  O  O17  1  0.37369800  0.57683200  0.71047200  1.0
  O  O18  1  0.62611900  0.42298500  0.28952600  1.0
  O  O19  1  0.66322600  0.37369800  0.79686600  1.0
  O  O20  1  0.33659250  0.62611900  0.20313350  1.0
  O  O21  1  0.86635900  0.66322600  0.28952700  1.0
  O  O22  1  0.13345900  0.33659300  0.71047400  1.0
  O  O23  1  0.57683200  0.86636000  0.20313400  1.0
  O  O24  1  0.42298500  0.13345900  0.79686600  1.0
