# generated using pymatgen
data_H12C17N4
_symmetry_space_group_name_H-M   'P 1'
_cell_length_a   26.22330000
_cell_length_b   26.22330000
_cell_length_c   41.06310000
_cell_angle_alpha   90.00000000
_cell_angle_beta   90.00000000
_cell_angle_gamma   120.00000000
_symmetry_Int_Tables_number   1
_chemical_formula_structural   H12C17N4
_chemical_formula_sum   'H108 C153 N36'
_cell_volume   24454.40222660
_cell_formula_units_Z   9
loop_
 _symmetry_equiv_pos_site_id
 _symmetry_equiv_pos_as_xyz
  1  'x, y, z'
loop_
 _atom_site_type_symbol
 _atom_site_label
 _atom_site_symmetry_multiplicity
 _atom_site_fract_x
 _atom_site_fract_y
 _atom_site_fract_z
 _atom_site_occupancy
  C  1  1  0.58617900  0.55362300  0.02405400  1
  C  2  1  0.55809050  0.58788950  0.02421700  1
  C  3  1  0.62738500  0.65453000  0.98059000  1
  C  4  1  0.65649300  0.62124200  0.97974800  1
  C  5  1  0.70688250  0.64124850  0.95945400  1
  C  6  1  0.72921100  0.69336600  0.94079300  1
  C  7  1  0.69795800  0.72415500  0.94128300  1
  C  8  1  0.64750150  0.70479250  0.96060700  1
  C  9  1  0.50858650  0.57128050  0.04437400  1
  C  10  1  0.48424850  0.51897550  0.06249200  1
  C  11  1  0.50938150  0.48243750  0.06164700  1
  C  12  1  0.56156700  0.50170600  0.04341400  1
  C  13  1  0.61937600  0.51624300  0.97974500  1
  C  14  1  0.64848650  0.48295650  0.98059100  1
  C  15  1  0.71776550  0.54958950  0.02422900  1
  C  16  1  0.68968050  0.58385750  0.02405900  1
  C  17  1  0.76726050  0.56619350  0.04439100  1
  C  18  1  0.79156250  0.61847150  0.06253000  1
  C  19  1  0.76643200  0.65501200  0.06170300  1
  C  20  1  0.71430700  0.63577600  0.04341700  1
  C  21  1  0.56901900  0.49627000  0.95942900  1
  C  22  1  0.54664450  0.44409350  0.94081700  1
  C  23  1  0.57789150  0.41329650  0.94130600  1
  C  24  1  0.62836250  0.43268050  0.96061900  1
  C  37  1  0.63793400  0.56874000  0.00189300  1
  C  38  1  0.69847850  0.49760550  0.00283500  1
  C  41  1  0.57737900  0.63987400  0.00282300  1
  C  52  1  0.17456400  0.62045900  0.35741900  1
  C  53  1  0.23691950  0.64857450  0.35757000  1
  C  54  1  0.23426300  0.57927200  0.31394400  1
  C  55  1  0.17186450  0.55014950  0.31310600  1
  C  56  1  0.14148850  0.49977550  0.29280100  1
  C  57  1  0.17129450  0.47744750  0.27415900  1
  C  58  1  0.23333550  0.50873750  0.27461000  1
  C  59  1  0.26441550  0.55915050  0.29396800  1
  C  60  1  0.26981100  0.69807500  0.37772600  1
  C  61  1  0.24183250  0.72239550  0.39585000  1
  C  62  1  0.18015650  0.69724050  0.39503400  1
  C  63  1  0.14726200  0.64506600  0.37678600  1
  C  64  1  0.10399950  0.58728750  0.31310400  1
  C  65  1  0.04160250  0.55816250  0.31393000  1
  C  66  1  0.03892600  0.48884800  0.35755000  1
  C  67  1  0.10128000  0.51695800  0.35740900  1
  C  68  1  0.00602200  0.43930600  0.37768000  1
  C  69  1  0.03399050  0.41500050  0.39582300  1
  C  70  1  0.09566750  0.44016150  0.39501700  1
  C  71  1  0.12857900  0.49236500  0.37679400  1
  C  72  1  0.13439200  0.63767500  0.29281100  1
  C  73  1  0.10460550  0.65998950  0.27413700  1
  C  74  1  0.04256250  0.62873450  0.27461200  1
  C  75  1  0.01146800  0.57832000  0.29396800  1
  C  88  1  0.13792700  0.56871300  0.33525300  1
  C  89  1  0.00623950  0.50814250  0.33615400  1
  C  92  1  0.26961400  0.62928700  0.33617300  1
  C  103  1  0.65303200  0.03207900  0.69072700  1
  C  104  1  0.61878650  0.96972250  0.69087100  1
  C  105  1  0.55213850  0.97239350  0.64725300  1
  C  106  1  0.58541200  0.03479000  0.64642500  1
  C  107  1  0.56540300  0.06518200  0.62614200  1
  C  108  1  0.51328850  0.03538550  0.60747800  1
  C  109  1  0.48253550  0.97334450  0.60792300  1
  C  110  1  0.50184650  0.94225450  0.62728900  1
  C  111  1  0.63541050  0.93682350  0.71101100  1
  C  112  1  0.68766000  0.96479300  0.72917800  1
  C  113  1  0.72421500  0.02646000  0.72832300  1
  C  114  1  0.70493350  0.05938050  0.71010200  1
  C  115  1  0.69041100  0.10266300  0.64642200  1
  C  116  1  0.72369250  0.16506050  0.64726500  1
  C  117  1  0.65706900  0.16770600  0.69091000  1
  C  118  1  0.62280200  0.10535000  0.69074200  1
  C  119  1  0.64047100  0.20059900  0.71107700  1
  C  120  1  0.58820850  0.17262750  0.72922900  1
  C  121  1  0.55163750  0.11096450  0.72835200  1
  C  122  1  0.57088650  0.07804950  0.71010500  1
  C  123  1  0.71038500  0.07228200  0.62610300  1
  C  124  1  0.76256100  0.10208300  0.60749200  1
  C  125  1  0.79336550  0.16412450  0.60799100  1
  C  126  1  0.77397500  0.19521500  0.62729800  1
  C  139  1  0.63791600  0.06872400  0.66857100  1
  C  140  1  0.70905200  0.20040500  0.66951400  1
  C  143  1  0.56679750  0.93703450  0.66947700  1
  C  154  1  0.47913150  0.36456950  0.87283800  1
  C  155  1  0.46706700  0.31286400  0.89000000  1
  C  157  1  0.46944800  0.26467100  0.84137900  1
  C  158  1  0.47614150  0.31285250  0.82248300  1
  C  159  1  0.48139700  0.36276200  0.83843700  1
  C  161  1  0.46950950  0.21713250  0.82548400  1
  C  162  1  0.47789300  0.12707700  0.79285800  1
  C  163  1  0.47457150  0.17149850  0.77493900  1
  C  166  1  0.47292200  0.21794700  0.79106300  1
  C  170  1  0.47322250  0.12820750  0.82715400  1
  C  172  1  0.48655350  0.08035650  0.77764600  1
  C  175  1  0.48877150  0.41951350  0.88908300  1
  C  178  1  0.09256150  0.72743450  0.20612700  1
  C  179  1  0.05294900  0.73953000  0.22329600  1
  C  181  1  0.00236050  0.73716750  0.17468500  1
  C  182  1  0.04382400  0.73044700  0.15578000  1
  C  183  1  0.08847000  0.72516400  0.17172700  1
  C  185  1  0.95476150  0.73712450  0.15879800  1
  C  186  1  0.85631750  0.72876450  0.12618900  1
  C  187  1  0.90404800  0.73207100  0.10826300  1
  C  190  1  0.95214450  0.73370550  0.12437800  1
  C  194  1  0.86213900  0.73344000  0.16048500  1
  C  196  1  0.80093100  0.72010800  0.11098600  1
  C  199  1  0.13784650  0.71775250  0.22236100  1
  C  202  1  0.84206850  0.11408950  0.53950700  1
  C  203  1  0.89377750  0.15373150  0.55666300  1
  C  205  1  0.94196650  0.20428950  0.50803800  1
  C  206  1  0.89377850  0.16279950  0.48914800  1
  C  207  1  0.84386700  0.11815400  0.50510600  1
  C  209  1  0.98950750  0.25187850  0.49213800  1
  C  210  1  0.07957200  0.35029100  0.45950100  1
  C  211  1  0.03513750  0.30255050  0.44158700  1
  C  214  1  0.98868550  0.25446450  0.45771800  1
  C  218  1  0.07844900  0.34450000  0.49379700  1
  C  220  1  0.12630450  0.40566050  0.44428000  1
  C  223  1  0.78712700  0.06879000  0.55575500  1
  C  226  1  0.79669400  0.77285900  0.87280300  1
  C  227  1  0.80876700  0.82456900  0.88996400  1
  C  229  1  0.80639350  0.87276350  0.84134200  1
  C  230  1  0.79969250  0.82457850  0.82244700  1
  C  231  1  0.79442650  0.77466250  0.83840200  1
  C  233  1  0.80634350  0.92030550  0.82544400  1
  C  234  1  0.79798500  0.01037100  0.79281300  1
  C  235  1  0.80129350  0.96594050  0.77489700  1
  C  238  1  0.80293200  0.91948800  0.79102300  1
  C  242  1  0.80265450  0.00924450  0.82710900  1
  C  244  1  0.78933800  0.05709900  0.77759700  1
  C  247  1  0.78704800  0.71791300  0.88904800  1
  C  250  1  0.18332150  0.41000350  0.20614200  1
  C  251  1  0.22295400  0.39792700  0.22330300  1
  C  253  1  0.27351650  0.40028250  0.17468300  1
  C  254  1  0.23203300  0.40698500  0.15578800  1
  C  255  1  0.18739100  0.41226300  0.17174100  1
  C  257  1  0.32110800  0.40033100  0.15878600  1
  C  258  1  0.41953600  0.40869500  0.12615800  1
  C  259  1  0.37179150  0.40537050  0.10823900  1
  C  262  1  0.32370100  0.40373400  0.12436500  1
  C  266  1  0.41374200  0.40403300  0.16045400  1
  C  268  1  0.47491650  0.41735650  0.11094200  1
  C  271  1  0.13803550  0.41967250  0.22238500  1
  C  274  1  0.43382700  0.02335700  0.53945800  1
  C  275  1  0.38211500  0.98374500  0.55662400  1
  C  277  1  0.33389650  0.93316350  0.50800900  1
  C  278  1  0.38208550  0.97462950  0.48910900  1
  C  279  1  0.43201400  0.01926900  0.50506000  1
  C  281  1  0.28634400  0.88557400  0.49211900  1
  C  282  1  0.19625900  0.78714300  0.45950300  1
  C  283  1  0.24068950  0.83487150  0.44157900  1
  C  286  1  0.28715100  0.88296200  0.45769800  1
  C  290  1  0.19739400  0.79295600  0.49379700  1
  C  292  1  0.14952700  0.73176200  0.44429200  1
  C  295  1  0.48879050  0.06863950  0.55569600  1
  H  25  1  0.56315850  0.37513850  0.92858700  1
  H  26  1  0.64867400  0.40798300  0.96124100  1
  H  27  1  0.78807750  0.54196150  0.04457600  1
  H  28  1  0.82925050  0.63055250  0.07526300  1
  H  29  1  0.69614150  0.66235450  0.04248400  1
  H  30  1  0.54606150  0.51835150  0.95962900  1
  H  31  1  0.72977950  0.61910450  0.95961500  1
  H  32  1  0.71266650  0.76229050  0.92854500  1
  H  33  1  0.62718100  0.72948200  0.96122000  1
  H  34  1  0.57969350  0.47509650  0.04246500  1
  H  35  1  0.48774100  0.59548500  0.04455200  1
  H  36  1  0.44653900  0.50687200  0.07520700  1
  H  39  1  0.68642100  0.45942700  0.01845800  1
  H  40  1  0.73606650  0.50491950  0.98786100  1
  H  42  1  0.58942050  0.67804550  0.01844300  1
  H  43  1  0.53979600  0.63254700  0.98784200  1
  H  45  1  0.78396900  0.73990700  0.06466500  1
  H  47  1  0.46589050  0.43604750  0.93464600  1
  H  49  1  0.80994800  0.70137300  0.93460300  1
  H  51  1  0.49183850  0.39753950  0.06461100  1
  H  76  1  0.01913150  0.64339250  0.26183700  1
  H  77  1  0.96645150  0.55791250  0.29451600  1
  H  78  1  0.96097250  0.41848550  0.37786800  1
  H  79  1  0.00837850  0.37728050  0.40852800  1
  H  80  1  0.17331100  0.51046900  0.37582200  1
  H  81  1  0.17943350  0.66057450  0.29297700  1
  H  82  1  0.09644550  0.47685050  0.29298600  1
  H  83  1  0.25677300  0.49404500  0.26186800  1
  H  84  1  0.30943050  0.57954350  0.29454200  1
  H  85  1  0.10252300  0.62693000  0.37583700  1
  H  86  1  0.31486000  0.71893900  0.37789200  1
  H  87  1  0.26743850  0.76011250  0.40855700  1
  H  90  1  0.98009500  0.52017300  0.35177400  1
  H  91  1  0.97599350  0.47056950  0.32116200  1
  H  93  1  0.29575500  0.61725500  0.35179300  1
  H  94  1  0.29986250  0.66686750  0.32118700  1
  H  96  1  0.16299800  0.42258200  0.39793900  1
  H  98  1  0.17734850  0.74069750  0.26789800  1
  H  100  1  0.09855800  0.39672500  0.26792850  1
  H  102  1  0.11280800  0.71479700  0.39795900  1
  H  127  1  0.83151450  0.18755850  0.59526500  1
  H  128  1  0.79866900  0.24022200  0.62791900  1
  H  129  1  0.66469950  0.24564750  0.71125700  1
  H  130  1  0.57608650  0.19824750  0.74191700  1
  H  131  1  0.54428650  0.03331150  0.70914300  1
  H  132  1  0.68829900  0.02724100  0.62630200  1
  H  133  1  0.58754050  0.11022550  0.62630700  1
  H  134  1  0.44441550  0.94991450  0.59517200  1
  H  135  1  0.47723750  0.89723850  0.62783900  1
  H  136  1  0.73155400  0.10411300  0.70912400  1
  H  137  1  0.61117950  0.89177650  0.71120300  1
  H  138  1  0.69979450  0.93917250  0.74185100  1
  H  141  1  0.74723100  0.22652100  0.68513400  1
  H  142  1  0.70173400  0.23067800  0.65454200  1
  H  144  1  0.52862650  0.91089750  0.68510000  1
  H  145  1  0.57411800  0.90678100  0.65448800  1
  H  147  1  0.46674050  0.04360850  0.73132100  1
  H  149  1  0.77061000  0.02937700  0.60131900  1
  H  151  1  0.50534100  0.10814200  0.60123400  1
  H  153  1  0.80911500  0.09382000  0.73126300  1
  H  160  1  0.48860050  0.39856350  0.82490900  1
  H  164  1  0.46217700  0.31015800  0.91469600  1
  H  169  1  0.47630700  0.17214400  0.75008200  1
  H  171  1  0.47434350  0.09671950  0.84131400  1
  H  173  1  0.44785750  0.03810450  0.78392400  1
  H  174  1  0.52462400  0.08083400  0.78892200  1
  H  176  1  0.45264350  0.42632550  0.88136800  1
  H  177  1  0.52950800  0.45688000  0.87982500  1
  H  184  1  0.11704400  0.71793700  0.15819400  1
  H  188  1  0.05514500  0.74441700  0.24799200  1
  H  193  1  0.90294350  0.73033050  0.08340700  1
  H  195  1  0.82954050  0.73233050  0.17465100  1
  H  197  1  0.79738850  0.75881150  0.11726400  1
  H  198  1  0.76334200  0.68204500  0.12226900  1
  H  200  1  0.18079400  0.75383100  0.21461700  1
  H  201  1  0.13440350  0.67697350  0.21312100  1
  H  208  1  0.80806400  0.08955500  0.49158000  1
  H  212  1  0.89648900  0.15155200  0.58135900  1
  H  217  1  0.03449050  0.30362950  0.41673000  1
  H  219  1  0.10994900  0.37711000  0.50795300  1
  H  221  1  0.16854650  0.40917950  0.45053900  1
  H  222  1  0.12587050  0.44326650  0.45556500  1
  H  224  1  0.78030900  0.02584800  0.54804000  1
  H  225  1  0.74976050  0.07216350  0.54650100  1
  H  232  1  0.78721850  0.73886150  0.82487500  1
  H  236  1  0.81365650  0.82727450  0.91466000  1
  H  241  1  0.79956500  0.96529700  0.75004100  1
  H  243  1  0.80154150  0.04073850  0.84126700  1
  H  245  1  0.82805300  0.09934400  0.78386300  1
  H  246  1  0.75128900  0.05665100  0.78888000  1
  H  248  1  0.82316400  0.71108800  0.88132500  1
  H  249  1  0.74630000  0.68055200  0.87979700  1
  H  256  1  0.15880200  0.41947500  0.15821300  1
  H  260  1  0.22077500  0.39304600  0.24799900  1
  H  265  1  0.37287600  0.40710100  0.08338500  1
  H  267  1  0.44635350  0.40515650  0.17461200  1
  H  269  1  0.47847250  0.37865950  0.11721800  1
  H  270  1  0.51250850  0.45542550  0.12221500  1
  H  272  1  0.09509000  0.38358700  0.21464600  1
  H  273  1  0.14146550  0.46044750  0.21314600  1
  H  280  1  0.46782000  0.04784500  0.49152700  1
  H  284  1  0.37941700  0.98593700  0.58132000  1
  H  289  1  0.24132900  0.83377400  0.41672300  1
  H  291  1  0.16589950  0.76035850  0.50796000  1
  H  293  1  0.10728450  0.72824050  0.45055600  1
  H  294  1  0.14996950  0.69416450  0.45558500  1
  H  296  1  0.49566550  0.11158650  0.54795200  1
  H  297  1  0.52612650  0.06519150  0.54645900  1
  N  44  1  0.79773250  0.71305250  0.07490700  1
  N  46  1  0.49045950  0.41877550  0.92537200  1
  N  48  1  0.78538400  0.71865800  0.92533800  1
  N  50  1  0.47809000  0.42440300  0.07486100  1
  N  95  1  0.12240050  0.40884450  0.40820200  1
  N  97  1  0.13548600  0.71613600  0.25865100  1
  N  99  1  0.14041500  0.42129800  0.25867600  1
  N  101  1  0.15341600  0.72855300  0.40821600  1
  N  146  1  0.49360000  0.08422400  0.74156600  1
  N  148  1  0.78787550  0.07121650  0.59204500  1
  N  150  1  0.48803850  0.06627850  0.59198700  1
  N  152  1  0.78226300  0.05321200  0.74151800  1
  N  156  1  0.46435650  0.26618650  0.87419000  1
  N  165  1  0.46925500  0.17224300  0.84211400  1
  N  167  1  0.47714400  0.26492300  0.77466600  1
  N  168  1  0.47912900  0.31006100  0.78955200  1
  N  180  1  0.00898700  0.74226200  0.20749600  1
  N  189  1  0.91014250  0.73739550  0.17543800  1
  N  191  1  0.99487800  0.72946000  0.10797400  1
  N  192  1  0.03802700  0.72745800  0.12285100  1
  N  204  1  0.94045450  0.19768850  0.54084800  1
  N  213  1  0.03440950  0.29651150  0.50876400  1
  N  215  1  0.94170200  0.21171000  0.44132400  1
  N  216  1  0.89656300  0.16856800  0.45621500  1
  N  228  1  0.81148600  0.87124700  0.87415200  1
  N  237  1  0.80660900  0.96520300  0.84207200  1
  N  239  1  0.79870150  0.87250850  0.77462800  1
  N  240  1  0.79670650  0.82736650  0.78951600  1
  N  252  1  0.26691100  0.39520000  0.20749300  1
  N  261  1  0.36574500  0.40007600  0.17541600  1
  N  263  1  0.28094900  0.40796200  0.10796900  1
  N  264  1  0.23780650  0.40996250  0.12285600  1
  N  276  1  0.33542350  0.93978750  0.54081900  1
  N  285  1  0.24144250  0.84095450  0.50875400  1
  N  287  1  0.33413600  0.92569600  0.44129700  1
  N  288  1  0.37928750  0.96883950  0.45617900  1
