# generated using pymatgen
data_Cd3H8C4(Cl3O)2
_symmetry_space_group_name_H-M   'P 1'
_cell_length_a   10.21246000
_cell_length_b   10.21600000
_cell_length_c   11.44819000
_cell_angle_alpha   80.54164000
_cell_angle_beta   80.50696000
_cell_angle_gamma   84.66674000
_symmetry_Int_Tables_number   1
_chemical_formula_structural   Cd3H8C4(Cl3O)2
_chemical_formula_sum   'Cd6 H16 C8 Cl12 O4'
_cell_volume   1159.35927375
_cell_formula_units_Z   2
loop_
 _symmetry_equiv_pos_site_id
 _symmetry_equiv_pos_as_xyz
  1  'x, y, z'
loop_
 _atom_site_type_symbol
 _atom_site_label
 _atom_site_symmetry_multiplicity
 _atom_site_fract_x
 _atom_site_fract_y
 _atom_site_fract_z
 _atom_site_occupancy
  Cd  Cd0  1  0.86468000  0.46022000  0.42682000  1
  Cd  Cd1  1  0.53978000  0.13522000  0.07329000  1
  Cd  Cd2  1  0.13532000  0.53979000  0.57318000  1
  Cd  Cd3  1  0.46022000  0.86478000  0.92671000  1
  Cd  Cd4  1  0.74162000  0.25839000  0.25000000  1
  Cd  Cd5  1  0.25838000  0.74161000  0.75000000  1
  H  H6  1  0.59730000  0.65679000  0.33378000  1
  H  H7  1  0.49979000  0.69594000  0.47050000  1
  H  H8  1  0.47290000  0.45501000  0.34637000  1
  H  H9  1  0.35680000  0.59685000  0.35654000  1
  H  H10  1  0.34326000  0.40304000  0.16651000  1
  H  H11  1  0.30410000  0.49997000  0.02959000  1
  H  H12  1  0.54512000  0.52766000  0.15331000  1
  H  H13  1  0.40304000  0.64356000  0.14327000  1
  H  H14  1  0.40270000  0.34322000  0.66622000  1
  H  H15  1  0.50021000  0.30407000  0.52950000  1
  H  H16  1  0.52710000  0.54500000  0.65363000  1
  H  H17  1  0.64320000  0.40316000  0.64346000  1
  H  H18  1  0.65674000  0.59697000  0.83349000  1
  H  H19  1  0.69590000  0.50004000  0.97041000  1
  H  H20  1  0.45488000  0.47234000  0.84669000  1
  H  H21  1  0.59696000  0.35645000  0.85673000  1
  C  C22  1  0.54120000  0.61498000  0.41982000  1
  C  C23  1  0.43252000  0.53319000  0.40051000  1
  C  C24  1  0.38507000  0.45886000  0.08033000  1
  C  C25  1  0.46676000  0.56779000  0.09930000  1
  C  C26  1  0.45880000  0.38502000  0.58018000  1
  C  C27  1  0.56748000  0.46681000  0.59949000  1
  C  C28  1  0.61492000  0.54115000  0.91967000  1
  C  C29  1  0.53324000  0.43221000  0.90070000  1
  Cl  Cl30  1  0.80169000  0.50133000  0.21229000  1
  Cl  Cl31  1  0.78991000  0.17883000  0.05062000  1
  Cl  Cl32  1  0.88559000  0.50875000  0.63580000  1
  Cl  Cl33  1  0.49862000  0.19822000  0.28783000  1
  Cl  Cl34  1  0.82114000  0.21019000  0.44935000  1
  Cl  Cl35  1  0.49123000  0.11442000  0.86429000  1
  Cl  Cl36  1  0.19831000  0.49868000  0.78771000  1
  Cl  Cl37  1  0.21009000  0.82118000  0.94938000  1
  Cl  Cl38  1  0.11441000  0.49126000  0.36420000  1
  Cl  Cl39  1  0.50138000  0.80179000  0.71217000  1
  Cl  Cl40  1  0.17886000  0.78982000  0.55065000  1
  Cl  Cl41  1  0.50877000  0.88558000  0.13571000  1
  O  O42  1  0.63535000  0.53090000  0.48603000  1
  O  O43  1  0.46936000  0.36462000  0.01432000  1
  O  O44  1  0.36465000  0.46910000  0.51397000  1
  O  O45  1  0.53064000  0.63539000  0.98568000  1
