# generated using pymatgen
data_H12C17N2
_symmetry_space_group_name_H-M   'P 1'
_cell_length_a   24.19830000
_cell_length_b   24.19830000
_cell_length_c   35.04830000
_cell_angle_alpha   90.00000000
_cell_angle_beta   90.00000000
_cell_angle_gamma   90.00000000
_symmetry_Int_Tables_number   1
_chemical_formula_structural   H12C17N2
_chemical_formula_sum   'H192 C272 N32'
_cell_volume   20522.80273917
_cell_formula_units_Z   16
loop_
 _symmetry_equiv_pos_site_id
 _symmetry_equiv_pos_as_xyz
  1  'x, y, z'
loop_
 _atom_site_type_symbol
 _atom_site_label
 _atom_site_symmetry_multiplicity
 _atom_site_fract_x
 _atom_site_fract_y
 _atom_site_fract_z
 _atom_site_occupancy
  C  1  1  0.23460900  0.18678600  0.19880900  1
  C  2  1  0.25150600  0.20702800  0.15757800  1
  C  3  1  0.27560100  0.13875000  0.21020800  1
  C  4  1  0.27240100  0.09429500  0.18153600  1
  C  7  1  0.29179000  0.11243800  0.14360400  1
  C  8  1  0.25150100  0.15802000  0.12796600  1
  C  13  1  0.19047700  0.13415500  0.12933800  1
  C  14  1  0.17331400  0.10768100  0.16907800  1
  C  17  1  0.21966800  0.06266900  0.18116000  1
  C  20  1  0.17515800  0.15971400  0.19630900  1
  C  23  1  0.75737600  0.80478400  0.19863200  1
  C  24  1  0.74056800  0.78458400  0.15735000  1
  C  25  1  0.71647200  0.85289700  0.21002500  1
  C  26  1  0.71953000  0.89703800  0.18118500  1
  C  29  1  0.70052800  0.87927200  0.14312900  1
  C  30  1  0.74080000  0.83354600  0.12767800  1
  C  35  1  0.80186600  0.85726300  0.12921800  1
  C  36  1  0.81885200  0.88374000  0.16897600  1
  C  39  1  0.77239400  0.92873500  0.18091000  1
  C  42  1  0.81687200  0.83176200  0.19622800  1
  C  45  1  0.30440900  0.73466400  0.69872200  1
  C  46  1  0.28421400  0.75166800  0.65749000  1
  C  47  1  0.35255000  0.77547600  0.71020000  1
  C  48  1  0.39685100  0.77258000  0.68132300  1
  C  51  1  0.37880300  0.79200200  0.64349200  1
  C  52  1  0.33328367  0.75166800  0.62788200  1
  C  57  1  0.35706300  0.69062400  0.62924900  1
  C  58  1  0.38343300  0.67337400  0.66901100  1
  C  61  1  0.42839000  0.71970400  0.68122000  1
  C  64  1  0.33136200  0.67518400  0.69618000  1
  C  67  1  0.68663200  0.25754800  0.69809400  1
  C  68  1  0.70669000  0.24093000  0.65675700  1
  C  69  1  0.63861600  0.21650300  0.70945900  1
  C  70  1  0.59418600  0.21954100  0.68067800  1
  C  73  1  0.61213000  0.20051000  0.64270500  1
  C  74  1  0.65758400  0.24103400  0.62719800  1
  C  79  1  0.63353200  0.30196300  0.62892100  1
  C  80  1  0.60734000  0.31887500  0.66878900  1
  C  83  1  0.56251200  0.27234200  0.68090900  1
  C  86  1  0.65952200  0.31699100  0.69584600  1
  C  89  1  0.25735800  0.68673400  0.29729600  1
  C  90  1  0.24080700  0.70707000  0.33857600  1
  C  91  1  0.21619000  0.63874800  0.28610200  1
  C  92  1  0.21953300  0.59434200  0.31480600  1
  C  95  1  0.20046400  0.61258000  0.35279900  1
  C  96  1  0.24093900  0.65812500  0.36824300  1
  C  101  1  0.30190300  0.63415200  0.36663700  1
  C  102  1  0.31875000  0.60760000  0.32687200  1
  C  105  1  0.27222600  0.56263900  0.31500800  1
  C  108  1  0.31678800  0.65957200  0.29959800  1
  C  111  1  0.73462200  0.30473700  0.29681600  1
  C  112  1  0.75172200  0.28461100  0.33805700  1
  C  113  1  0.77537700  0.35288800  0.28524900  1
  C  114  1  0.77244800  0.39707300  0.31406400  1
  C  117  1  0.79171700  0.37938100  0.35206300  1
  C  118  1  0.75159400  0.33362900  0.36767600  1
  C  123  1  0.69048200  0.35724800  0.36634000  1
  C  124  1  0.67323200  0.38367200  0.32660700  1
  C  127  1  0.71954600  0.42870400  0.31448900  1
  C  130  1  0.67511000  0.33164000  0.29938700  1
  C  133  1  0.18661700  0.23410900  0.79758300  1
  C  134  1  0.20667900  0.25081600  0.83889700  1
  C  135  1  0.13858900  0.27511500  0.78617600  1
  C  136  1  0.09416400  0.27212600  0.81495900  1
  C  139  1  0.11211100  0.29124100  0.85290900  1
  C  140  1  0.15757700  0.25076100  0.86845600  1
  C  145  1  0.13353300  0.18982700  0.86681000  1
  C  146  1  0.10733900  0.17282200  0.82695600  1
  C  149  1  0.06250400  0.21931400  0.81478500  1
  C  152  1  0.15952900  0.17466500  0.79989700  1
  C  155  1  0.80439200  0.75701600  0.79727500  1
  C  156  1  0.78423800  0.74004400  0.83852300  1
  C  157  1  0.85252300  0.71619100  0.78579900  1
  C  158  1  0.89684600  0.71911200  0.81465600  1
  C  161  1  0.87883400  0.69972800  0.85250700  1
  C  162  1  0.83328600  0.74007300  0.86811400  1
  C  167  1  0.85709800  0.80112600  0.86669900  1
  C  168  1  0.88343400  0.81833400  0.82692200  1
  C  171  1  0.92838800  0.77198800  0.81473000  1
  C  174  1  0.83134800  0.81649600  0.79977100  1
  C  177  1  0.17387300  0.26567100  0.90930000  1
  C  178  1  0.22673500  0.28490800  0.92115500  1
  C  180  1  0.21775700  0.24079800  0.98170300  1
  C  181  1  0.16473900  0.22190000  0.97049800  1
  C  182  1  0.13917200  0.24804300  0.93949000  1
  C  184  1  0.24162400  0.21737500  0.01473600  1
  C  185  1  0.28549500  0.22728000  0.07528000  1
  C  186  1  0.26675700  0.17425700  0.08719700  1
  C  187  1  0.25031200  0.13895200  0.05701700  1
  C  190  1  0.22342100  0.16419800  0.02615200  1
  C  191  1  0.17492600  0.14101500  0.01056900  1
  C  192  1  0.14203900  0.17338300  0.98637400  1
  C  197  1  0.81714800  0.72488600  0.90891500  1
  C  198  1  0.76423200  0.70585200  0.92084700  1
  C  200  1  0.77393400  0.74991200  0.98134300  1
  C  201  1  0.82708200  0.76822400  0.96997300  1
  C  202  1  0.85238600  0.74152000  0.93910500  1
  C  204  1  0.75046200  0.77361600  0.01441500  1
  C  205  1  0.70653800  0.76436400  0.07501800  1
  C  206  1  0.72571400  0.81725000  0.08687700  1
  C  207  1  0.74305200  0.85210600  0.05668300  1
  C  210  1  0.76919900  0.82668200  0.02564400  1
  C  211  1  0.81780200  0.84940300  0.00992300  1
  C  212  1  0.85011800  0.81679400  0.98552300  1
  C  217  1  0.22602100  0.67451800  0.40905300  1
  C  218  1  0.20690400  0.72744400  0.42087700  1
  C  220  1  0.25072500  0.71831100  0.48150700  1
  C  221  1  0.26953600  0.66525400  0.47032300  1
  C  222  1  0.24341800  0.63976400  0.43927700  1
  C  224  1  0.27411400  0.74211000  0.51457300  1
  C  225  1  0.26407300  0.78579100  0.57517800  1
  C  226  1  0.31702200  0.76688400  0.58710400  1
  C  227  1  0.35244300  0.75058600  0.55695700  1
  C  230  1  0.32723900  0.72381200  0.52603200  1
  C  231  1  0.35036800  0.67528400  0.51045900  1
  C  232  1  0.31798100  0.64245800  0.48623500  1
  C  237  1  0.76682700  0.31749900  0.40846800  1
  C  238  1  0.78570800  0.26454400  0.42041700  1
  C  240  1  0.74192000  0.27466900  0.48098500  1
  C  241  1  0.72392100  0.32792300  0.46959200  1
  C  242  1  0.75062000  0.35299200  0.43862400  1
  C  244  1  0.71804400  0.25130700  0.51404000  1
  C  245  1  0.72665800  0.20675800  0.57447300  1
  C  246  1  0.67386200  0.22620600  0.58633400  1
  C  247  1  0.63934200  0.24415400  0.55612400  1
  C  250  1  0.66508400  0.27035900  0.52523500  1
  C  251  1  0.64268800  0.31912700  0.50954000  1
  C  252  1  0.67549800  0.35125600  0.48515100  1
  C  257  1  0.87719800  0.90880400  0.16831500  1
  C  258  1  0.90453900  0.92543800  0.20234700  1
  C  260  1  0.97347400  0.97714400  0.16872000  1
  C  261  1  0.95122800  0.95868800  0.13353600  1
  C  262  1  0.90460600  0.92400000  0.13400200  1
  C  264  1  0.01877400  0.01416100  0.16870200  1
  C  265  1  0.08734100  0.06636900  0.20232200  1
  C  266  1  0.11499600  0.08256300  0.16830800  1
  C  267  1  0.08796000  0.06687300  0.13396100  1
  C  270  1  0.04136700  0.03214700  0.13350600  1
  C  271  1  0.01877900  0.01358000  0.09868800  1
  C  272  1  0.97416800  0.97675900  0.09870400  1
  C  277  1  0.58224200  0.37720400  0.66816100  1
  C  278  1  0.56571800  0.40454600  0.70222000  1
  C  280  1  0.51392400  0.47349200  0.66862600  1
  C  281  1  0.53239800  0.45130400  0.63342900  1
  C  282  1  0.56705600  0.40467700  0.63386800  1
  C  284  1  0.47692200  0.51880400  0.66861800  1
  C  285  1  0.42467000  0.58733000  0.70224800  1
  C  286  1  0.40849600  0.61503400  0.66824100  1
  C  287  1  0.42432800  0.58809200  0.63389400  1
  C  290  1  0.45899400  0.54146000  0.63342600  1
  C  291  1  0.47760000  0.51894200  0.59860000  1
  C  292  1  0.51437100  0.47429400  0.59860300  1
  C  297  1  0.61487400  0.40870600  0.32738000  1
  C  298  1  0.58723200  0.42499700  0.29338400  1
  C  300  1  0.51859400  0.47705400  0.32703200  1
  C  301  1  0.54119200  0.45901600  0.36221500  1
  C  302  1  0.58782200  0.42434000  0.36173200  1
  C  304  1  0.47328600  0.51406200  0.32704000  1
  C  305  1  0.40438400  0.56588800  0.29345200  1
  C  306  1  0.37705300  0.58244200  0.32750500  1
  C  307  1  0.40447000  0.56720600  0.36180700  1
  C  310  1  0.45105000  0.53246800  0.36224000  1
  C  311  1  0.47397800  0.51432200  0.39705800  1
  C  312  1  0.51858800  0.47750000  0.39704700  1
  C  317  1  0.90846500  0.87668600  0.82765800  1
  C  318  1  0.92472600  0.90428300  0.79363100  1
  C  320  1  0.97686200  0.97292400  0.82723900  1
  C  321  1  0.95877000  0.95041800  0.86243600  1
  C  322  1  0.92409600  0.90379600  0.86198800  1
  C  324  1  0.01387400  0.01822900  0.82722200  1
  C  325  1  0.06580700  0.08703200  0.79359700  1
  C  326  1  0.08222900  0.11449900  0.82763000  1
  C  327  1  0.06684000  0.08720400  0.86194800  1
  C  330  1  0.03218500  0.04057100  0.86241000  1
  C  331  1  0.01398400  0.01774100  0.89724500  1
  C  332  1  0.97721000  0.97309400  0.89725900  1
  C  337  1  0.22839600  0.00141400  0.19033500  1
  C  338  1  0.18314200  0.96418200  0.19539600  1
  C  340  1  0.24081900  0.88928200  0.21311200  1
  C  341  1  0.28864800  0.92094100  0.20496000  1
  C  342  1  0.28166100  0.97660600  0.19395700  1
  C  344  1  0.24573600  0.83617400  0.22912500  1
  C  345  1  0.20313500  0.76070200  0.26135700  1
  C  346  1  0.25453900  0.73537400  0.26991100  1
  C  347  1  0.30210900  0.76242000  0.25500200  1
  C  350  1  0.29873700  0.81323600  0.23550700  1
  C  351  1  0.34633700  0.84312000  0.22457000  1
  C  352  1  0.34134300  0.89694000  0.20984100  1
  C  357  1  0.76357400  0.99000000  0.19001400  1
  C  358  1  0.80878000  0.02734500  0.19491100  1
  C  360  1  0.75103600  0.10211400  0.21275800  1
  C  361  1  0.70323200  0.07034500  0.20475200  1
  C  362  1  0.71027400  0.01469100  0.19375600  1
  C  364  1  0.74610600  0.15522600  0.22875000  1
  C  365  1  0.78876200  0.23082600  0.26079400  1
  C  366  1  0.73735000  0.25601400  0.26950600  1
  C  367  1  0.68973600  0.22886700  0.25475600  1
  C  370  1  0.69309400  0.17806700  0.23524600  1
  C  371  1  0.64549200  0.14807600  0.22446500  1
  C  372  1  0.65051300  0.09423900  0.20977300  1
  C  377  1  0.48963400  0.72839800  0.69043600  1
  C  378  1  0.52684800  0.68311800  0.69547200  1
  C  380  1  0.60177400  0.74074200  0.71319600  1
  C  381  1  0.57011600  0.78859700  0.70511900  1
  C  382  1  0.51444600  0.78165000  0.69413100  1
  C  384  1  0.65489800  0.74560200  0.72917700  1
  C  385  1  0.73041100  0.70289200  0.76128700  1
  C  386  1  0.75568400  0.75427600  0.76995200  1
  C  387  1  0.72865900  0.80190000  0.75510400  1
  C  390  1  0.67784000  0.79858600  0.73562000  1
  C  391  1  0.64795900  0.84622500  0.72476300  1
  C  392  1  0.59412800  0.84127800  0.71005200  1
  C  397  1  0.50136200  0.26342800  0.69036800  1
  C  398  1  0.46398800  0.30857600  0.69541800  1
  C  400  1  0.38943700  0.25075500  0.71362100  1
  C  401  1  0.42124000  0.20299000  0.70555800  1
  C  402  1  0.47679800  0.21010100  0.69432800  1
  C  404  1  0.33638000  0.24576500  0.72970500  1
  C  405  1  0.26066800  0.28832700  0.76170400  1
  C  406  1  0.23545000  0.23690100  0.77034900  1
  C  407  1  0.26277500  0.18931600  0.75570900  1
  C  410  1  0.31361000  0.19272800  0.73623900  1
  C  411  1  0.34367300  0.14516400  0.72547100  1
  C  412  1  0.39745300  0.15024500  0.71068800  1
  C  417  1  0.26340400  0.50139900  0.30585800  1
  C  418  1  0.30860700  0.46404600  0.30099600  1
  C  420  1  0.25088300  0.38931700  0.28302000  1
  C  421  1  0.20306800  0.42110400  0.29096400  1
  C  422  1  0.21010500  0.47674800  0.30199800  1
  C  424  1  0.24597600  0.33623400  0.26697700  1
  C  425  1  0.28868200  0.26068000  0.23491600  1
  C  426  1  0.23729500  0.23545900  0.22616500  1
  C  427  1  0.18965400  0.26262300  0.24086100  1
  C  430  1  0.19297600  0.31343300  0.26036600  1
  C  431  1  0.14535400  0.34343800  0.27109800  1
  C  432  1  0.15035300  0.39724300  0.28584900  1
  C  437  1  0.72828200  0.48998100  0.30536200  1
  C  438  1  0.68302800  0.52721700  0.30028900  1
  C  440  1  0.74073400  0.60214200  0.28266300  1
  C  441  1  0.78854800  0.57048200  0.29085000  1
  C  442  1  0.78155100  0.51481000  0.30182400  1
  C  444  1  0.74566800  0.65527200  0.26669600  1
  C  445  1  0.70310400  0.73080800  0.23450900  1
  C  446  1  0.75453200  0.75608600  0.22596600  1
  C  447  1  0.80208600  0.72903900  0.24089700  1
  C  450  1  0.79868000  0.67823400  0.26039700  1
  C  451  1  0.84626200  0.64834400  0.27135600  1
  C  452  1  0.84125000  0.59450000  0.28603100  1
  C  457  1  0.00134900  0.22819100  0.80532100  1
  C  458  1  0.96401800  0.18302500  0.80020800  1
  C  460  1  0.88939400  0.24081900  0.78212100  1
  C  461  1  0.92115600  0.28859400  0.79023300  1
  C  462  1  0.97673400  0.28150500  0.80142300  1
  C  464  1  0.83633200  0.24580800  0.76603500  1
  C  465  1  0.76069800  0.20327100  0.73393300  1
  C  466  1  0.73546600  0.25470000  0.72531900  1
  C  467  1  0.76268200  0.30226700  0.74008800  1
  C  470  1  0.81353200  0.29884300  0.75954400  1
  C  471  1  0.84353900  0.34640500  0.77039200  1
  C  472  1  0.89731600  0.34133100  0.78518500  1
  C  477  1  0.98963200  0.76326400  0.80552000  1
  C  478  1  0.02687300  0.80853200  0.80052400  1
  C  480  1  0.10175300  0.75088800  0.78274000  1
  C  481  1  0.07007500  0.70304200  0.79079500  1
  C  482  1  0.01441500  0.71000400  0.80180300  1
  C  484  1  0.15488400  0.74602400  0.76677100  1
  C  485  1  0.23045300  0.78875000  0.73473500  1
  C  486  1  0.25572500  0.73736200  0.72606700  1
  C  487  1  0.22862100  0.68973000  0.74082400  1
  C  490  1  0.17781400  0.69304000  0.76032300  1
  C  491  1  0.14790000  0.64540400  0.77113600  1
  C  492  1  0.09405700  0.65035600  0.78582200  1
  H  5  1  0.26547300  0.12287600  0.23859800  1
  H  6  1  0.31834600  0.15303200  0.21181400  1
  H  9  1  0.33392800  0.12865700  0.14546200  1
  H  10  1  0.29364000  0.07705200  0.12421600  1
  H  11  1  0.29288000  0.22516900  0.15851200  1
  H  12  1  0.22314500  0.23955000  0.14813100  1
  H  15  1  0.18734400  0.10093200  0.10892300  1
  H  16  1  0.16086300  0.16587200  0.12032000  1
  H  18  1  0.21357400  0.04173000  0.15374400  1
  H  19  1  0.20324200  0.06142100  0.21028700  1
  H  21  1  0.14481200  0.18983600  0.18606800  1
  H  22  1  0.16281800  0.14805200  0.22519300  1
  H  27  1  0.72661400  0.86890000  0.23837900  1
  H  28  1  0.67373000  0.83862200  0.21164000  1
  H  31  1  0.65835200  0.86313600  0.14482800  1
  H  32  1  0.69894200  0.91470500  0.12376900  1
  H  33  1  0.69914000  0.76656800  0.15822200  1
  H  34  1  0.76886000  0.75196600  0.14796400  1
  H  37  1  0.80522600  0.89050500  0.10883200  1
  H  38  1  0.83145200  0.82546800  0.12028800  1
  H  40  1  0.77866200  0.94965800  0.15350800  1
  H  41  1  0.78874600  0.93010700  0.21005500  1
  H  43  1  0.84720800  0.80157400  0.18606300  1
  H  44  1  0.82914600  0.84348100  0.22511700  1
  H  49  1  0.36848900  0.76522200  0.73855300  1
  H  50  1  0.33826400  0.81820800  0.71193800  1
  H  53  1  0.36257200  0.83413000  0.64539000  1
  H  54  1  0.41422000  0.79382600  0.62413100  1
  H  55  1  0.26612200  0.79306000  0.65844600  1
  H  56  1  0.25166300  0.72336100  0.64800900  1
  H  59  1  0.39034200  0.68750400  0.60887200  1
  H  60  1  0.32535400  0.66103800  0.62017300  1
  H  62  1  0.44941200  0.71355000  0.65384100  1
  H  63  1  0.42958000  0.70326400  0.71034600  1
  H  65  1  0.30119900  0.64491800  0.68588000  1
  H  66  1  0.34296200  0.66275400  0.72505700  1
  H  71  1  0.62276800  0.22644500  0.73788800  1
  H  72  1  0.65299600  0.17378700  0.71097400  1
  H  75  1  0.62842400  0.15838900  0.64438800  1
  H  76  1  0.57668200  0.19884800  0.62336600  1
  H  77  1  0.72488200  0.19957600  0.65756400  1
  H  78  1  0.73914800  0.26937400  0.64732400  1
  H  81  1  0.60000100  0.30512000  0.60874000  1
  H  82  1  0.66507600  0.33171400  0.61983100  1
  H  84  1  0.54129000  0.27864800  0.65362400  1
  H  85  1  0.56145300  0.28857400  0.71009200  1
  H  87  1  0.68955700  0.34740400  0.68557700  1
  H  88  1  0.64800000  0.32922200  0.72478300  1
  H  93  1  0.22606600  0.62280000  0.25768900  1
  H  94  1  0.17345900  0.65311200  0.28464200  1
  H  97  1  0.15833700  0.62885800  0.35108100  1
  H  98  1  0.19872900  0.57725200  0.37224400  1
  H  99  1  0.19946000  0.72527800  0.33776000  1
  H  100  1  0.26928400  0.73956800  0.34789700  1
  H  103  1  0.30513700  0.60088200  0.38701200  1
  H  104  1  0.33163500  0.66582000  0.37555100  1
  H  106  1  0.27841700  0.54172800  0.34242200  1
  H  107  1  0.28844300  0.56129600  0.28582600  1
  H  109  1  0.34725600  0.68966800  0.30970100  1
  H  110  1  0.32891100  0.64780600  0.27068700  1
  H  115  1  0.76502600  0.36882900  0.25691500  1
  H  116  1  0.81813000  0.33867800  0.28351000  1
  H  119  1  0.83390200  0.36328200  0.35024500  1
  H  120  1  0.79341600  0.41486800  0.37137100  1
  H  121  1  0.79317200  0.26664800  0.33709200  1
  H  122  1  0.72352200  0.25197600  0.34754300  1
  H  125  1  0.68720600  0.39042800  0.38678100  1
  H  126  1  0.66099300  0.32540800  0.37534500  1
  H  128  1  0.71336400  0.44964800  0.34189400  1
  H  129  1  0.70301800  0.42999400  0.28538900  1
  H  131  1  0.64487600  0.30143100  0.30966700  1
  H  132  1  0.66265800  0.34327300  0.27052200  1
  H  137  1  0.12274400  0.26510700  0.75775500  1
  H  138  1  0.15295400  0.31783300  0.78461800  1
  H  141  1  0.12839400  0.33334767  0.85118600  1
  H  142  1  0.07665900  0.29293800  0.87224800  1
  H  143  1  0.22486300  0.29217400  0.83805500  1
  H  144  1  0.23914200  0.22239300  0.84835500  1
  H  147  1  0.10002400  0.18673600  0.88701400  1
  H  148  1  0.16507800  0.16009300  0.87593200  1
  H  150  1  0.04128100  0.21304800  0.84207000  1
  H  151  1  0.06146400  0.20302300  0.78561300  1
  H  153  1  0.18957200  0.14428100  0.81019700  1
  H  154  1  0.14801900  0.16237300  0.77097100  1
  H  159  1  0.86844200  0.72641900  0.75743500  1
  H  160  1  0.83823200  0.67346000  0.78408400  1
  H  163  1  0.86260200  0.65760000  0.85062900  1
  H  164  1  0.91427000  0.69791700  0.87185200  1
  H  165  1  0.76615000  0.69864800  0.83758700  1
  H  166  1  0.75169200  0.76835200  0.84801000  1
  H  169  1  0.89040200  0.80432200  0.88705100  1
  H  170  1  0.82537600  0.83070600  0.87576600  1
  H  172  1  0.94941400  0.77817000  0.84210400  1
  H  173  1  0.92958200  0.78839400  0.78559600  1
  H  175  1  0.80119300  0.84677400  0.81006500  1
  H  176  1  0.84294000  0.82890200  0.77088800  1
  H  183  1  0.09873500  0.23862100  0.93451400  1
  H  188  1  0.25339400  0.30266600  0.90226100  1
  H  193  1  0.15953500  0.10441300  0.02064900  1
  H  194  1  0.10575500  0.15727600  0.97628200  1
  H  195  1  0.24091800  0.09857000  0.06218800  1
  H  196  1  0.30245100  0.25441100  0.09420200  1
  H  203  1  0.89275400  0.75063200  0.93366600  1
  H  208  1  0.73714800  0.68885000  0.90191900  1
  H  213  1  0.83363800  0.88590200  0.01987000  1
  H  214  1  0.88670800  0.83232400  0.97551200  1
  H  215  1  0.75221400  0.89255400  0.06187400  1
  H  216  1  0.68921000  0.73753200  0.09398000  1
  H  223  1  0.25277400  0.59930800  0.43429800  1
  H  228  1  0.18930800  0.75416000  0.40194800  1
  H  233  1  0.38691900  0.65981600  0.52057300  1
  H  234  1  0.33403700  0.60614600  0.47615500  1
  H  235  1  0.39279700  0.74112200  0.56216700  1
  H  236  1  0.23691800  0.80270800  0.59410000  1
  H  243  1  0.74160600  0.39335800  0.43308000  1
  H  248  1  0.80242800  0.23729400  0.40147800  1
  H  253  1  0.60625000  0.33513900  0.51944900  1
  H  254  1  0.66015800  0.38791300  0.47511900  1
  H  255  1  0.59890200  0.25344800  0.56118600  1
  H  256  1  0.75325200  0.18896900  0.59339000  1
  H  263  1  0.88977400  0.91237400  0.10810200  1
  H  268  1  0.88783600  0.91749400  0.22847700  1
  H  273  1  0.03497400  0.02604400  0.07310900  1
  H  274  1  0.95819400  0.96398600  0.07313300  1
  H  275  1  0.10314100  0.07801500  0.10805900  1
  H  276  1  0.10385000  0.07450600  0.22847800  1
  H  283  1  0.57870600  0.38988700  0.60795900  1
  H  288  1  0.57352800  0.38770300  0.72832400  1
  H  293  1  0.46518600  0.53519000  0.57302700  1
  H  294  1  0.52720200  0.45838400  0.57302700  1
  H  295  1  0.41313300  0.60326200  0.60799600  1
  H  296  1  0.41650400  0.60385200  0.72839500  1
  H  303  1  0.60294000  0.41307000  0.38762500  1
  H  308  1  0.60370000  0.41681000  0.26722100  1
  H  313  1  0.45803600  0.52709100  0.42264000  1
  H  314  1  0.53481000  0.46503300  0.42261700  1
  H  315  1  0.38959700  0.57871400  0.38772200  1
  H  316  1  0.38761700  0.57376800  0.26733400  1
  H  323  1  0.91279600  0.88871600  0.88789000  1
  H  328  1  0.91672600  0.88765400  0.76749000  1
  H  333  1  0.02669200  0.03376700  0.92281600  1
  H  334  1  0.96467200  0.95696000  0.92283600  1
  H  335  1  0.07837800  0.10209400  0.88785200  1
  H  336  1  0.07379000  0.10375700  0.76748100  1
  H  343  1  0.31648900  0.99950900  0.18934800  1
  H  348  1  0.14365600  0.97664000  0.19149000  1
  H  353  1  0.38496200  0.82741800  0.22945500  1
  H  354  1  0.37639900  0.91910800  0.20415000  1
  H  355  1  0.34072300  0.74754400  0.26028000  1
  H  356  1  0.16684300  0.74524200  0.27154900  1
  H  363  1  0.67546500  0.99170200  0.18928600  1
  H  368  1  0.84827000  0.01496500  0.19090900  1
  H  373  1  0.60685700  0.16372700  0.22939200  1
  H  374  1  0.61547000  0.07203000  0.20411100  1
  H  375  1  0.65113200  0.24375200  0.26006400  1
  H  376  1  0.82507600  0.24639800  0.27087300  1
  H  383  1  0.49155600  0.81650000  0.68957700  1
  H  388  1  0.51438400  0.64364800  0.69152000  1
  H  393  1  0.66367100  0.88483100  0.72969300  1
  H  394  1  0.57195800  0.87635200  0.70441700  1
  H  395  1  0.74352800  0.84050200  0.76043700  1
  H  396  1  0.74591400  0.66656800  0.77140200  1
  H  403  1  0.49980400  0.17531800  0.68980800  1
  H  408  1  0.47624800  0.34807500  0.69128100  1
  H  413  1  0.32807700  0.10650900  0.73041500  1
  H  414  1  0.41967800  0.11522800  0.70497900  1
  H  415  1  0.24793900  0.15069700  0.76103000  1
  H  416  1  0.24504700  0.32463000  0.77176100  1
  H  423  1  0.17529800  0.49975800  0.30642300  1
  H  428  1  0.34808600  0.47636800  0.30513600  1
  H  433  1  0.10673500  0.32783400  0.26604300  1
  H  434  1  0.11530500  0.41950500  0.29138700  1
  H  435  1  0.15105200  0.24784000  0.23542200  1
  H  436  1  0.32502800  0.24513800  0.22487200  1
  H  443  1  0.81637600  0.49191500  0.30645400  1
  H  448  1  0.64353300  0.51471800  0.30407800  1
  H  453  1  0.88490200  0.66408400  0.26657500  1
  H  454  1  0.87629800  0.57237100  0.29182600  1
  H  455  1  0.84069600  0.74400300  0.23572800  1
  H  456  1  0.66683600  0.74631100  0.22430400  1
  H  463  1  0.99970200  0.31629700  0.80600000  1
  H  468  1  0.97630200  0.14352700  0.80432200  1
  H  473  1  0.82793400  0.38505200  0.76543800  1
  H  474  1  0.91954800  0.37635400  0.79085800  1
  H  475  1  0.74789200  0.34089600  0.73474900  1
  H  476  1  0.74511800  0.16697600  0.72383300  1
  H  483  1  0.99150400  0.67516200  0.80632800  1
  H  488  1  0.01441500  0.84801000  0.80445900  1
  H  493  1  0.16362300  0.60678600  0.76624300  1
  H  494  1  0.07191100  0.61528600  0.79152000  1
  H  495  1  0.24355400  0.65114100  0.73553400  1
  H  496  1  0.24598000  0.82507000  0.72463800  1
  N  179  1  0.24616600  0.27359100  0.95694600  1
  N  189  1  0.27397500  0.24638200  0.03943600  1
  N  199  1  0.74506800  0.71737300  0.95668000  1
  N  209  1  0.71787800  0.74503000  0.03920500  1
  N  219  1  0.21812400  0.74683200  0.45669300  1
  N  229  1  0.24506200  0.77441000  0.53928800  1
  N  239  1  0.77418200  0.24553900  0.45629100  1
  N  249  1  0.74623800  0.21824300  0.53874300  1
  N  259  1  0.94972000  0.95888200  0.20150400  1
  N  269  1  0.04221000  0.03285500  0.20147600  1
  N  279  1  0.53219600  0.44968400  0.70139200  1
  N  289  1  0.45819400  0.54220800  0.70139200  1
  N  299  1  0.54205000  0.45843800  0.29424300  1
  N  309  1  0.44952800  0.53238400  0.29427400  1
  N  319  1  0.95826600  0.94939600  0.79447300  1
  N  329  1  0.03229200  0.04189500  0.79444400  1
  N  339  1  0.19034400  0.91169600  0.20737000  1
  N  349  1  0.20044000  0.80900400  0.24200600  1
  N  359  1  0.80152800  0.07981900  0.20688500  1
  N  369  1  0.79143200  0.18250400  0.24147600  1
  N  379  1  0.57934600  0.69028400  0.70742100  1
  N  389  1  0.68209400  0.70025600  0.74195900  1
  N  399  1  0.41161900  0.30126900  0.70760700  1
  N  409  1  0.30901900  0.29105300  0.74241300  1
  N  419  1  0.30136800  0.41157900  0.28899600  1
  N  429  1  0.29132200  0.30896500  0.25428100  1
  N  439  1  0.69024800  0.57971000  0.28833400  1
  N  449  1  0.70038400  0.68247000  0.25381200  1
  N  459  1  0.91162600  0.19031500  0.78805900  1
  N  469  1  0.80902000  0.20053100  0.75325800  1
  N  479  1  0.07935700  0.80135400  0.78854700  1
  N  489  1  0.18210500  0.79137400  0.75402800  1
