# generated using pymatgen
data_ZnH16C24(NO)4
_symmetry_space_group_name_H-M   'P 1'
_cell_length_a   11.41286000
_cell_length_b   13.40882150
_cell_length_c   18.48650000
_cell_angle_alpha   100.62347151
_cell_angle_beta   90.06404000
_cell_angle_gamma   114.67124014
_symmetry_Int_Tables_number   1
_chemical_formula_structural   ZnH16C24(NO)4
_chemical_formula_sum   'Zn4 H64 C96 N16 O16'
_cell_volume   2517.06824803
_cell_formula_units_Z   4
loop_
 _symmetry_equiv_pos_site_id
 _symmetry_equiv_pos_as_xyz
  1  'x, y, z'
loop_
 _atom_site_type_symbol
 _atom_site_label
 _atom_site_symmetry_multiplicity
 _atom_site_fract_x
 _atom_site_fract_y
 _atom_site_fract_z
 _atom_site_occupancy
  Zn  Zn0  1  0.58109000  0.60507000  0.59437000  1
  Zn  Zn1  1  0.97322000  0.39405000  0.90475000  1
  Zn  Zn2  1  0.41891000  0.39493000  0.40562000  1
  Zn  Zn3  1  0.02678000  0.60595000  0.09525000  1
  H  H4  1  0.51012000  0.36035000  0.70076000  1
  H  H5  1  0.44468000  0.20485000  0.77235000  1
  H  H6  1  0.22237000  0.96776000  0.57871000  1
  H  H7  1  0.28704000  0.12357000  0.50734000  1
  H  H8  1  0.47659000  0.65702000  0.87038000  1
  H  H9  1  0.44399000  0.79433000  0.97054000  1
  H  H10  1  0.63182000  0.05671000  0.85094000  1
  H  H11  1  0.66003000  0.91577000  0.74926000  1
  H  H12  1  0.83143000  0.70644000  0.51807000  1
  H  H13  1  0.05151000  0.70924000  0.51883000  1
  H  H14  1  0.94682000  0.52325000  0.69554000  1
  H  H15  1  0.73177000  0.52921000  0.68598000  1
  H  H16  1  0.25249000  0.77370000  0.57850000  1
  H  H17  1  0.45675000  0.75124000  0.56748000  1
  H  H18  1  0.29518000  0.44396000  0.63019000  1
  H  H19  1  0.08150000  0.45167000  0.64309000  1
  H  H20  1  0.14845000  0.63862000  0.79960000  1
  H  H21  1  0.23970000  0.79395000  0.72823000  1
  H  H22  1  0.25552000  0.03315000  0.92184000  1
  H  H23  1  0.16335000  0.87744000  0.99306000  1
  H  H24  1  0.81757000  0.34159000  0.62809000  1
  H  H25  1  0.64842000  0.20451000  0.52842000  1
  H  H26  1  0.57526000  0.94324000  0.64916000  1
  H  H27  1  0.74340000  0.08331000  0.75051000  1
  H  H28  1  0.12609000  0.29287000  0.98111000  1
  H  H29  1  0.34414000  0.29156000  0.98125000  1
  H  H30  1  0.42165000  0.47696000  0.80430000  1
  H  H31  1  0.20013000  0.47014000  0.81320000  1
  H  H32  1  0.48146000  0.22636000  0.92189000  1
  H  H33  1  0.70764000  0.24867000  0.93295000  1
  H  H34  1  0.84773000  0.55577000  0.86998000  1
  H  H35  1  0.62660000  0.54824000  0.85687000  1
  H  H36  1  0.48988000  0.63965000  0.29923000  1
  H  H37  1  0.55533000  0.79515000  0.22765000  1
  H  H38  1  0.77764000  0.03224000  0.42129000  1
  H  H39  1  0.71296000  0.87643000  0.49266000  1
  H  H40  1  0.52342000  0.34299000  0.12961000  1
  H  H41  1  0.55601000  0.20567000  0.02946000  1
  H  H42  1  0.36818000  0.94329000  0.14906000  1
  H  H43  1  0.33998000  0.08424000  0.25074000  1
  H  H44  1  0.16857000  0.29356000  0.48193000  1
  H  H45  1  0.94849000  0.29076000  0.48117000  1
  H  H46  1  0.05318000  0.47675000  0.30446000  1
  H  H47  1  0.26824000  0.47079000  0.31401000  1
  H  H48  1  0.74752000  0.22630000  0.42150000  1
  H  H49  1  0.54326000  0.24876000  0.43252000  1
  H  H50  1  0.70483000  0.55604000  0.36981000  1
  H  H51  1  0.91851000  0.54833000  0.35691000  1
  H  H52  1  0.85156000  0.36138000  0.20039000  1
  H  H53  1  0.76030000  0.20605000  0.27177000  1
  H  H54  1  0.74449000  0.96685000  0.07816000  1
  H  H55  1  0.83665000  0.12256000  0.00694000  1
  H  H56  1  0.18244000  0.65842000  0.37190000  1
  H  H57  1  0.35158000  0.79549000  0.47158000  1
  H  H58  1  0.42476000  0.05677000  0.35084000  1
  H  H59  1  0.25660000  0.91669000  0.24948000  1
  H  H60  1  0.87391000  0.70713000  0.01889000  1
  H  H61  1  0.65586000  0.70844000  0.01874000  1
  H  H62  1  0.57835000  0.52304000  0.19570000  1
  H  H63  1  0.79987000  0.52986000  0.18680000  1
  H  H64  1  0.51854000  0.77364000  0.07810000  1
  H  H65  1  0.29237000  0.75133000  0.06705000  1
  H  H66  1  0.15227000  0.44423000  0.13001000  1
  H  H67  1  0.37340000  0.45176000  0.14312000  1
  C  C68  1  0.43808000  0.34363000  0.55898000  1
  C  C69  1  0.40101000  0.25042000  0.60041000  1
  C  C70  1  0.44704000  0.27401000  0.67517000  1
  C  C71  1  0.41096000  0.18884000  0.71463000  1
  C  C72  1  0.32825000  0.07834000  0.67949000  1
  C  C73  1  0.28480000  0.05417000  0.60448000  1
  C  C74  1  0.32007000  0.14009000  0.56530000  1
  C  C75  1  0.58550000  0.69733000  0.74137000  1
  C  C76  1  0.57162000  0.77967000  0.80400000  1
  C  C77  1  0.51135000  0.74468000  0.86688000  1
  C  C78  1  0.49358000  0.82046000  0.92270000  1
  C  C79  1  0.53789000  0.93371000  0.91731000  1
  C  C80  1  0.59859000  0.96915000  0.85470000  1
  C  C81  1  0.61454000  0.89211000  0.79871000  1
  C  C82  1  0.86253000  0.66794000  0.55648000  1
  C  C83  1  0.98521000  0.66974000  0.55796000  1
  C  C84  1  0.01900000  0.61635000  0.60761000  1
  C  C85  1  0.92692000  0.56589000  0.65547000  1
  C  C86  1  0.80641000  0.56805000  0.65042000  1
  C  C87  1  0.14573000  0.61090000  0.60725000  1
  C  C88  1  0.25532000  0.69692000  0.58782000  1
  C  C89  1  0.37066000  0.68552000  0.58241000  1
  C  C90  1  0.28040000  0.51430000  0.61764000  1
  C  C91  1  0.16114000  0.51905000  0.62457000  1
  C  C92  1  0.09369000  0.65731000  0.94225000  1
  C  C93  1  0.14971000  0.74961000  0.90013000  1
  C  C94  1  0.17201000  0.72529000  0.82536000  1
  C  C95  1  0.22169000  0.81039000  0.78590000  1
  C  C96  1  0.25000000  0.92148000  0.82097000  1
  C  C97  1  0.23093000  0.94634000  0.89599000  1
  C  C98  1  0.17981000  0.86054000  0.93511000  1
  C  C99  1  0.88567000  0.30228000  0.75747000  1
  C  C100  1  0.79054000  0.21944000  0.69514000  1
  C  C101  1  0.76516000  0.25420000  0.63198000  1
  C  C102  1  0.67213000  0.17865000  0.57648000  1
  C  C103  1  0.60384000  0.06588000  0.58243000  1
  C  C104  1  0.62932000  0.03056000  0.64523000  1
  C  C105  1  0.72182000  0.10732000  0.70099000  1
  C  C106  1  0.19494000  0.33165000  0.94283000  1
  C  C107  1  0.31623000  0.33054000  0.94184000  1
  C  C108  1  0.40244000  0.38391000  0.89228000  1
  C  C109  1  0.35977000  0.43428000  0.84427000  1
  C  C110  1  0.23676000  0.43147000  0.84891000  1
  C  C111  1  0.53446000  0.38918000  0.89289000  1
  C  C112  1  0.55953000  0.30310000  0.91247000  1
  C  C113  1  0.68599000  0.31438000  0.91796000  1
  C  C114  1  0.76390000  0.48559000  0.88260000  1
  C  C115  1  0.64002000  0.48091000  0.87558000  1
  C  C116  1  0.56193000  0.65637000  0.44102000  1
  C  C117  1  0.59899000  0.74958000  0.39959000  1
  C  C118  1  0.55297000  0.72600000  0.32482000  1
  C  C119  1  0.58905000  0.81116000  0.28537000  1
  C  C120  1  0.67175000  0.92166000  0.32051000  1
  C  C121  1  0.71522000  0.94584000  0.39552000  1
  C  C122  1  0.67993000  0.85991000  0.43470000  1
  C  C123  1  0.41451000  0.30267000  0.25863000  1
  C  C124  1  0.42839000  0.22033000  0.19599000  1
  C  C125  1  0.48865000  0.25532000  0.13311000  1
  C  C126  1  0.50642000  0.17954000  0.07730000  1
  C  C127  1  0.46212000  0.06629000  0.08269000  1
  C  C128  1  0.40142000  0.03086000  0.14530000  1
  C  C129  1  0.38547000  0.10789000  0.20129000  1
  C  C130  1  0.13748000  0.33207000  0.44352000  1
  C  C131  1  0.01479000  0.33026000  0.44204000  1
  C  C132  1  0.98100000  0.38365000  0.39238000  1
  C  C133  1  0.07308000  0.43411000  0.34453000  1
  C  C134  1  0.19359000  0.43195000  0.34957000  1
  C  C135  1  0.85427000  0.38910000  0.39275000  1
  C  C136  1  0.74468000  0.30308000  0.41218000  1
  C  C137  1  0.62936000  0.31449000  0.41758000  1
  C  C138  1  0.71960000  0.48570000  0.38235000  1
  C  C139  1  0.83886000  0.48095000  0.37543000  1
  C  C140  1  0.90632000  0.34269000  0.05775000  1
  C  C141  1  0.85030000  0.25039000  0.09987000  1
  C  C142  1  0.82799000  0.27471000  0.17464000  1
  C  C143  1  0.77831000  0.18961000  0.21410000  1
  C  C144  1  0.75000000  0.07852000  0.17902000  1
  C  C145  1  0.76907000  0.05366000  0.10401000  1
  C  C146  1  0.82019000  0.13946000  0.06489000  1
  C  C147  1  0.11433000  0.69772000  0.24253000  1
  C  C148  1  0.20946000  0.78056000  0.30486000  1
  C  C149  1  0.23484000  0.74580000  0.36802000  1
  C  C150  1  0.32788000  0.82135000  0.42351000  1
  C  C151  1  0.39616000  0.93412000  0.41757000  1
  C  C152  1  0.37068000  0.96944000  0.35477000  1
  C  C153  1  0.27818000  0.89268000  0.29901000  1
  C  C154  1  0.80507000  0.66835000  0.05717000  1
  C  C155  1  0.68377000  0.66946000  0.05816000  1
  C  C156  1  0.59756000  0.61609000  0.10771000  1
  C  C157  1  0.64023000  0.56572000  0.15572000  1
  C  C158  1  0.76326000  0.56854000  0.15109000  1
  C  C159  1  0.46555000  0.61082000  0.10711000  1
  C  C160  1  0.44047000  0.69690000  0.08753000  1
  C  C161  1  0.31402000  0.68562000  0.08204000  1
  C  C162  1  0.23611000  0.51441000  0.11740000  1
  C  C163  1  0.35998000  0.51909000  0.12442000  1
  N  N164  1  0.77362000  0.61678000  0.60117000  1
  N  N165  1  0.38315000  0.59444000  0.59521000  1
  N  N166  1  0.28259000  0.98608000  0.71498000  1
  N  N167  1  0.52447000  0.01689000  0.97102000  1
  N  N168  1  0.15577000  0.38224000  0.89781000  1
  N  N169  1  0.78784000  0.40543000  0.90516000  1
  N  N170  1  0.29681000  0.01367000  0.78545000  1
  N  N171  1  0.50782000  0.98307000  0.52899000  1
  N  N172  1  0.22638000  0.38322000  0.39882000  1
  N  N173  1  0.61685000  0.40556000  0.40479000  1
  N  N174  1  0.71741000  0.01392000  0.28502000  1
  N  N175  1  0.47553000  0.98311000  0.02897000  1
  N  N176  1  0.84423000  0.61776000  0.10219000  1
  N  N177  1  0.21216000  0.59457000  0.09483000  1
  N  N178  1  0.70319000  0.98633000  0.21455000  1
  N  N179  1  0.49218000  0.01693000  0.47101000  1
  O  O180  1  0.52066000  0.43943000  0.59227000  1
  O  O181  1  0.55983000  0.59918000  0.74908000  1
  O  O182  1  0.62093000  0.73439000  0.68140000  1
  O  O183  1  0.38244000  0.31923000  0.49400000  1
  O  O184  1  0.07922000  0.56035000  0.90951000  1
  O  O185  1  0.95623000  0.40029000  0.74943000  1
  O  O186  1  0.88507000  0.26573000  0.81762000  1
  O  O187  1  0.06472000  0.68402000  0.00757000  1
  O  O188  1  0.47934000  0.56057000  0.40773000  1
  O  O189  1  0.44017000  0.40082000  0.25092000  1
  O  O190  1  0.37907000  0.26561000  0.31860000  1
  O  O191  1  0.61756000  0.68077000  0.50600000  1
  O  O192  1  0.92078000  0.43965000  0.09048000  1
  O  O193  1  0.04377000  0.59971000  0.25057000  1
  O  O194  1  0.11494000  0.73427000  0.18238000  1
  O  O195  1  0.93528000  0.31598000  0.99243000  1
