# generated using pymatgen
data_CsCd2H16(C2O)16
_symmetry_space_group_name_H-M   'P 1'
_cell_length_a   12.84516000
_cell_length_b   13.98992000
_cell_length_c   14.25261000
_cell_angle_alpha   89.98404000
_cell_angle_beta   108.33761000
_cell_angle_gamma   89.96268000
_symmetry_Int_Tables_number   1
_chemical_formula_structural   CsCd2H16(C2O)16
_chemical_formula_sum   'Cs2 Cd4 H32 C64 O32'
_cell_volume   2431.17095953
_cell_formula_units_Z   2
loop_
 _symmetry_equiv_pos_site_id
 _symmetry_equiv_pos_as_xyz
  1  'x, y, z'
loop_
 _atom_site_type_symbol
 _atom_site_label
 _atom_site_symmetry_multiplicity
 _atom_site_fract_x
 _atom_site_fract_y
 _atom_site_fract_z
 _atom_site_occupancy
  Cs  Cs0  1  0.25914000  0.88231000  0.24769000  1
  Cs  Cs1  1  0.74136000  0.38233000  0.75403000  1
  Cd  Cd2  1  0.51220000  0.07979000  0.25162000  1
  Cd  Cd3  1  0.98160000  0.72602000  0.25102000  1
  Cd  Cd4  1  0.48789000  0.58006000  0.74840000  1
  Cd  Cd5  1  0.02046000  0.22619000  0.74931000  1
  H  H6  1  0.50919000  0.34991000  0.03527000  1
  H  H7  1  0.79848000  0.50772000  0.03477000  1
  H  H8  1  0.91043000  0.41272000  0.17930000  1
  H  H9  1  0.82163000  0.28262000  0.24833000  1
  H  H10  1  0.52239000  0.80441000  0.50907000  1
  H  H11  1  0.78148000  0.84133000  0.37972000  1
  H  H12  1  0.88776000  0.71200000  0.48539000  1
  H  H13  1  0.80783000  0.62268000  0.59971000  1
  H  H14  1  0.97791000  0.45518000  0.46940000  1
  H  H15  1  0.68545000  0.30286000  0.46770000  1
  H  H16  1  0.57279000  0.40723000  0.33122000  1
  H  H17  1  0.66462000  0.53786000  0.26570000  1
  H  H18  1  0.00696000  0.99586000  0.02707000  1
  H  H19  1  0.72409000  0.99136000  0.12990000  1
  H  H20  1  0.64573000  0.13026000  0.02293000  1
  H  H21  1  0.74870000  0.20282000  0.91808000  1
  H  H22  1  0.49085000  0.85046000  0.96456000  1
  H  H23  1  0.20082000  0.00792000  0.96447000  1
  H  H24  1  0.08939000  0.91267000  0.82021000  1
  H  H25  1  0.17860000  0.78224000  0.75194000  1
  H  H26  1  0.47527000  0.30447000  0.48863000  1
  H  H27  1  0.21843000  0.34159000  0.62113000  1
  H  H28  1  0.11171000  0.21242000  0.51657000  1
  H  H29  1  0.18992000  0.12295000  0.40118000  1
  H  H30  1  0.02265000  0.95398000  0.53040000  1
  H  H31  1  0.31622000  0.80194000  0.53341000  1
  H  H32  1  0.42794000  0.90766000  0.66876000  1
  H  H33  1  0.33487000  0.03757000  0.73415000  1
  H  H34  1  0.99403000  0.49618000  0.97410000  1
  H  H35  1  0.27572000  0.49123000  0.86965000  1
  H  H36  1  0.35459000  0.63018000  0.97616000  1
  H  H37  1  0.25206000  0.70305000  0.08154000  1
  C  C38  1  0.59701000  0.36288000  0.06564000  1
  C  C39  1  0.64732000  0.43343000  0.02488000  1
  C  C40  1  0.76078000  0.45126000  0.06572000  1
  C  C41  1  0.82339000  0.39754000  0.14630000  1
  C  C42  1  0.77406000  0.32536000  0.18557000  1
  C  C43  1  0.66052000  0.30815000  0.14510000  1
  C  C44  1  0.58039000  0.48658000  0.93558000  1
  C  C45  1  0.60797000  0.23026000  0.18496000  1
  C  C46  1  0.60180000  0.78344000  0.50368000  1
  C  C47  1  0.64540000  0.83142000  0.43865000  1
  C  C48  1  0.74846000  0.80450000  0.43145000  1
  C  C49  1  0.80772000  0.73049000  0.49078000  1
  C  C50  1  0.76341000  0.68119000  0.55411000  1
  C  C51  1  0.65956000  0.70727000  0.56048000  1
  C  C52  1  0.58194000  0.91142000  0.37822000  1
  C  C53  1  0.61188000  0.65613000  0.62874000  1
  C  C54  1  0.88943000  0.44549000  0.44010000  1
  C  C55  1  0.83767000  0.37465000  0.47873000  1
  C  C56  1  0.72333000  0.36047000  0.43854000  1
  C  C57  1  0.66067000  0.41920000  0.36261000  1
  C  C58  1  0.71152000  0.49144000  0.32534000  1
  C  C59  1  0.82631000  0.50382000  0.36332000  1
  C  C60  1  0.87965000  0.57972000  0.32172000  1
  C  C61  1  0.90073000  0.31744000  0.56651000  1
  C  C62  1  0.92818000  0.02518000  0.02616000  1
  C  C63  1  0.87115000  0.98534000  0.08569000  1
  C  C64  1  0.76841000  0.02315000  0.08400000  1
  C  C65  1  0.72470000  0.10164000  0.02369000  1
  C  C66  1  0.78188000  0.14173000  0.96516000  1
  C  C67  1  0.88364000  0.10306000  0.96498000  1
  C  C68  1  0.94061000  0.14263000  0.89704000  1
  C  C69  1  0.91675000  0.90007000  0.14783000  1
  C  C70  1  0.40295000  0.86309000  0.93430000  1
  C  C71  1  0.35225000  0.93337000  0.97513000  1
  C  C72  1  0.23883000  0.95125000  0.93404000  1
  C  C73  1  0.17644000  0.89762000  0.85339000  1
  C  C74  1  0.22599000  0.82532000  0.81441000  1
  C  C75  1  0.33957000  0.80838000  0.85486000  1
  C  C76  1  0.41934000  0.98635000  0.06437000  1
  C  C77  1  0.39223000  0.73050000  0.81504000  1
  C  C78  1  0.39625000  0.28382000  0.49521000  1
  C  C79  1  0.35388000  0.33157000  0.56119000  1
  C  C80  1  0.25102000  0.30481000  0.56913000  1
  C  C81  1  0.19127000  0.23094000  0.51007000  1
  C  C82  1  0.23459000  0.18162000  0.44623000  1
  C  C83  1  0.33786000  0.20780000  0.43872000  1
  C  C84  1  0.41808000  0.41106000  0.62199000  1
  C  C85  1  0.38460000  0.15621000  0.37015000  1
  C  C86  1  0.11108000  0.94423000  0.55989000  1
  C  C87  1  0.16353000  0.87368000  0.52127000  1
  C  C88  1  0.27782000  0.85986000  0.56170000  1
  C  C89  1  0.34004000  0.91898000  0.63747000  1
  C  C90  1  0.28845000  0.99070000  0.67480000  1
  C  C91  1  0.17367000  0.00237000  0.63708000  1
  C  C92  1  0.12007000  0.07825000  0.67867000  1
  C  C93  1  0.10048000  0.81610000  0.43384000  1
  C  C94  1  0.07257000  0.52533000  0.97445000  1
  C  C95  1  0.12917000  0.48562000  0.91448000  1
  C  C96  1  0.23169000  0.52327000  0.91573000  1
  C  C97  1  0.27586000  0.60166000  0.97591000  1
  C  C98  1  0.21895000  0.64181000  0.03474000  1
  C  C99  1  0.11740000  0.60320000  0.03528000  1
  C  C100  1  0.06062000  0.64280000  0.10323000  1
  C  C101  1  0.08304000  0.40073000  0.85234000  1
  O  O102  1  0.48484000  0.51402000  0.92797000  1
  O  O103  1  0.62426000  0.50013000  0.86680000  1
  O  O104  1  0.66769000  0.16379000  0.23643000  1
  O  O105  1  0.50399000  0.22904000  0.16678000  1
  O  O106  1  0.48225000  0.92371000  0.37123000  1
  O  O107  1  0.63192000  0.96668000  0.33422000  1
  O  O108  1  0.67386000  0.60906000  0.70073000  1
  O  O109  1  0.50816000  0.66211000  0.61439000  1
  O  O110  1  0.82452000  0.65391000  0.28391000  1
  O  O111  1  0.97933000  0.57130000  0.32430000  1
  O  O112  1  0.00452000  0.30975000  0.59043000  1
  O  O113  1  0.84789000  0.27979000  0.61946000  1
  O  O114  1  0.88113000  0.18602000  0.81901000  1
  O  O115  1  0.04291000  0.13303000  0.91451000  1
  O  O116  1  0.01982000  0.88654000  0.18003000  1
  O  O117  1  0.85044000  0.84047000  0.16607000  1
  O  O118  1  0.51466000  0.01388000  0.07163000  1
  O  O119  1  0.37581000  0.99993000  0.13339000  1
  O  O120  1  0.33270000  0.66392000  0.76385000  1
  O  O121  1  0.49619000  0.72917000  0.83311000  1
  O  O122  1  0.51765000  0.42346000  0.62860000  1
  O  O123  1  0.36908000  0.46637000  0.66687000  1
  O  O124  1  0.32213000  0.10875000  0.29908000  1
  O  O125  1  0.48820000  0.16202000  0.38406000  1
  O  O126  1  0.17559000  0.15204000  0.71745000  1
  O  O127  1  0.02021000  0.07067000  0.67553000  1
  O  O128  1  0.99660000  0.80953000  0.40968000  1
  O  O129  1  0.15270000  0.77652000  0.38109000  1
  O  O130  1  0.12105000  0.68577000  0.18119000  1
  O  O131  1  0.95826000  0.63353000  0.08588000  1
  O  O132  1  0.98017000  0.38703000  0.82117000  1
  O  O133  1  0.14954000  0.34168000  0.83337000  1
