# generated using pymatgen
data_H6C12N5O3
_symmetry_space_group_name_H-M   'P 1'
_cell_length_a   25.96200000
_cell_length_b   25.96200000
_cell_length_c   27.15280000
_cell_angle_alpha   90.00000000
_cell_angle_beta   90.00000000
_cell_angle_gamma   120.00000000
_symmetry_Int_Tables_number   1
_chemical_formula_structural   H6C12N5O3
_chemical_formula_sum   'H72 C144 N60 O36'
_cell_volume   15849.71814556
_cell_formula_units_Z   12
loop_
 _symmetry_equiv_pos_site_id
 _symmetry_equiv_pos_as_xyz
  1  'x, y, z'
loop_
 _atom_site_type_symbol
 _atom_site_label
 _atom_site_symmetry_multiplicity
 _atom_site_fract_x
 _atom_site_fract_y
 _atom_site_fract_z
 _atom_site_occupancy
  C  1  1  0.42404300  0.48117200  0.98803700  1
  C  2  1  0.38969550  0.48010050  0.02931300  1
  C  3  1  0.35463550  0.50765450  0.02842600  1
  C  4  1  0.36069350  0.54395750  0.98771250  1
  C  5  1  0.39692350  0.54966750  0.94700000  1
  C  6  1  0.42449450  0.51426950  0.94579600  1
  C  9  1  0.45512300  0.44864400  0.98932800  1
  C  10  1  0.48780200  0.44829700  0.03158200  1
  C  11  1  0.52175350  0.41916750  0.03048100  1
  C  12  1  0.51463700  0.38211200  0.98999300  1
  C  13  1  0.47923750  0.37749850  0.94904200  1
  C  14  1  0.45335800  0.41407100  0.94797800  1
  C  25  1  0.96852800  0.47482100  0.32137100  1
  C  26  1  0.00180450  0.50916550  0.36265200  1
  C  27  1  0.06442150  0.54421850  0.36176100  1
  C  28  1  0.09466000  0.53815600  0.32104700  1
  C  29  1  0.06413950  0.50193450  0.28033300  1
  C  30  1  0.00117000  0.47437300  0.27912900  1
  C  33  1  0.90491900  0.44374800  0.32266400  1
  C  34  1  0.87189250  0.41106550  0.36492100  1
  C  35  1  0.80881250  0.37711150  0.36381600  1
  C  36  1  0.77887200  0.38423100  0.32332700  1
  C  37  1  0.80966000  0.41963700  0.28238100  1
  C  38  1  0.87211250  0.44551950  0.28131600  1
  C  49  1  0.41769600  0.93032700  0.65470000  1
  C  50  1  0.41876750  0.89705450  0.69597900  1
  C  51  1  0.39120800  0.83443800  0.69509000  1
  C  52  1  0.35490300  0.80419600  0.65437800  1
  C  53  1  0.34919650  0.83471750  0.61366500  1
  C  54  1  0.38459950  0.89768250  0.61246000  1
  C  57  1  0.45022500  0.99393700  0.65599200  1
  C  58  1  0.45056750  0.02696050  0.69824800  1
  C  59  1  0.47968300  0.09004100  0.69714500  1
  C  60  1  0.51674000  0.11998300  0.65665600  1
  C  61  1  0.52136350  0.08919950  0.61570900  1
  C  62  1  0.48480050  0.02674750  0.61464400  1
  C  73  1  0.47712950  0.20509850  0.77817100  1
  C  75  1  0.47394800  0.20659700  0.86621300  1
  C  76  1  0.47500000  0.26151500  0.86551300  1
  C  78  1  0.47856750  0.26051850  0.77709800  1
  C  83  1  0.48175250  0.17692550  0.73551600  1
  C  85  1  0.47793350  0.29206750  0.90904400  1
  C  87  1  0.63935450  0.42171250  0.11151100  1
  C  89  1  0.64405150  0.42493450  0.19954900  1
  C  90  1  0.69793250  0.42390750  0.19885700  1
  C  92  1  0.69334150  0.42028450  0.11043900  1
  C  97  1  0.60653600  0.41704500  0.06885600  1
  C  99  1  0.72553050  0.42093650  0.24238500  1
  C  101  1  0.69374750  0.25949850  0.44483500  1
  C  103  1  0.69225650  0.25481150  0.53287400  1
  C  104  1  0.63734500  0.20093400  0.53217400  1
  C  106  1  0.63833400  0.20551100  0.44376000  1
  C  111  1  0.72191150  0.29231450  0.40218400  1
  C  113  1  0.60678250  0.17333550  0.57570900  1
  C  115  1  0.39623200  0.72141600  0.77686900  1
  C  117  1  0.39862200  0.71959000  0.86493700  1
  C  118  1  0.39878950  0.66527350  0.86423900  1
  C  120  1  0.39599400  0.66658300  0.77580800  1
  C  125  1  0.39130650  0.74927450  0.73412900  1
  C  127  1  0.39605200  0.63467700  0.90768800  1
  C  129  1  0.23658850  0.50262750  0.11020300  1
  C  131  1  0.23237550  0.50025550  0.19827500  1
  C  132  1  0.17789550  0.50009550  0.19756800  1
  C  134  1  0.18198400  0.50285000  0.10913900  1
  C  139  1  0.26937000  0.50755000  0.06746000  1
  C  141  1  0.15000750  0.50277650  0.24101800  1
  C  143  1  0.17744150  0.66225550  0.44353900  1
  C  145  1  0.17928450  0.66646950  0.53161100  1
  C  146  1  0.23359800  0.72095900  0.53090300  1
  C  148  1  0.23226250  0.71686950  0.44247400  1
  C  153  1  0.14959800  0.62946300  0.40079900  1
  C  155  1  0.26416800  0.74884400  0.57435400  1
  C  625  1  0.11590100  0.75079800  0.98803700  1
  C  626  1  0.08155350  0.74972650  0.02931300  1
  C  627  1  0.04649350  0.77728050  0.02842600  1
  C  628  1  0.05255150  0.81358350  0.98771250  1
  C  629  1  0.08878150  0.81929350  0.94700000  1
  C  630  1  0.11635250  0.78389550  0.94579600  1
  C  633  1  0.14698100  0.71827000  0.98932800  1
  C  634  1  0.17966000  0.71792300  0.03158200  1
  C  635  1  0.21361150  0.68879350  0.03048100  1
  C  636  1  0.20649500  0.65173800  0.98999300  1
  C  637  1  0.17109550  0.64712450  0.94904200  1
  C  638  1  0.14521600  0.68369700  0.94797800  1
  C  649  1  0.66038600  0.74444680  0.32137100  1
  C  650  1  0.69366250  0.77879130  0.36265200  1
  C  651  1  0.75627950  0.81384430  0.36176100  1
  C  652  1  0.78651800  0.80778180  0.32104700  1
  C  653  1  0.75599750  0.77156025  0.28033300  1
  C  654  1  0.69302800  0.74399880  0.27912900  1
  C  657  1  0.59677700  0.71337380  0.32266400  1
  C  658  1  0.56375050  0.68069130  0.36492100  1
  C  659  1  0.50067050  0.64673730  0.36381600  1
  C  660  1  0.47073000  0.65385680  0.32332700  1
  C  661  1  0.50151800  0.68926280  0.28238100  1
  C  662  1  0.56397050  0.71514530  0.28131600  1
  C  673  1  0.10955400  0.19995280  0.65470000  1
  C  674  1  0.11062550  0.16668030  0.69597900  1
  C  675  1  0.08306600  0.10406380  0.69509000  1
  C  676  1  0.04676100  0.07382180  0.65437800  1
  C  677  1  0.04105450  0.10434330  0.61366500  1
  C  678  1  0.07645750  0.16730830  0.61246000  1
  C  681  1  0.14208300  0.26356280  0.65599200  1
  C  682  1  0.14242550  0.29658630  0.69824800  1
  C  683  1  0.17154100  0.35966680  0.69714500  1
  C  684  1  0.20859800  0.38960880  0.65665600  1
  C  685  1  0.21322150  0.35882530  0.61570900  1
  C  686  1  0.17665850  0.29637330  0.61464400  1
  C  697  1  0.16898750  0.47472450  0.77817100  1
  C  699  1  0.16580600  0.47622300  0.86621300  1
  C  700  1  0.16685800  0.53114100  0.86551300  1
  C  702  1  0.17042550  0.53014450  0.77709800  1
  C  707  1  0.17361050  0.44655150  0.73551600  1
  C  709  1  0.16979150  0.56169350  0.90904400  1
  C  711  1  0.33121250  0.69133850  0.11151100  1
  C  713  1  0.33590950  0.69456050  0.19954900  1
  C  714  1  0.38979050  0.69353350  0.19885700  1
  C  716  1  0.38519950  0.68991050  0.11043900  1
  C  721  1  0.29839400  0.68667100  0.06885600  1
  C  723  1  0.41738850  0.69056250  0.24238500  1
  C  725  1  0.38560550  0.52912430  0.44483500  1
  C  727  1  0.38411450  0.52443730  0.53287400  1
  C  728  1  0.32920300  0.47055980  0.53217400  1
  C  730  1  0.33019200  0.47513680  0.44376000  1
  C  735  1  0.41376950  0.56194030  0.40218400  1
  C  737  1  0.29864050  0.44296130  0.57570900  1
  C  739  1  0.08809000  0.99104200  0.77686900  1
  C  741  1  0.09048000  0.98921600  0.86493700  1
  C  742  1  0.09064750  0.93489950  0.86423900  1
  C  744  1  0.08785200  0.93620900  0.77580800  1
  C  749  1  0.08316450  0.01890050  0.73412900  1
  C  751  1  0.08791000  0.90430300  0.90768800  1
  C  753  1  0.92844620  0.77225320  0.11020300  1
  C  755  1  0.92423320  0.76988120  0.19827500  1
  C  756  1  0.86975320  0.76972120  0.19756800  1
  C  758  1  0.87384170  0.77247570  0.10913900  1
  C  763  1  0.96122770  0.77717570  0.06746000  1
  C  765  1  0.84186520  0.77240220  0.24101800  1
  C  767  1  0.86929920  0.93188100  0.44353900  1
  C  769  1  0.87114220  0.93609500  0.53161100  1
  C  770  1  0.92545570  0.99058450  0.53090300  1
  C  772  1  0.92412020  0.98649500  0.44247400  1
  C  777  1  0.84145570  0.89908850  0.40079900  1
  C  779  1  0.95602570  0.01846950  0.57435400  1
  H  7  1  0.38458450  0.45319350  0.05866500  1
  H  8  1  0.33810600  0.56671000  0.98766900  1
  H  15  1  0.53626400  0.35841300  0.99003200  1
  H  16  1  0.42688350  0.40977050  0.91852900  1
  H  19  1  0.43674600  0.50343700  0.87850500  1
  H  20  1  0.47781950  0.46155850  0.09881200  1
  H  31  1  0.98001300  0.51427800  0.39200500  1
  H  32  1  0.14000050  0.56073850  0.32100300  1
  H  39  1  0.73354750  0.36260350  0.32336700  1
  H  40  1  0.89428700  0.47199400  0.25186800  1
  H  43  1  0.97808350  0.46212650  0.21183900  1
  H  44  1  0.89513700  0.42104000  0.43214800  1
  H  55  1  0.44567550  0.91884850  0.72532800  1
  H  56  1  0.33214700  0.75885400  0.65433500  1
  H  63  1  0.54043150  0.16530850  0.65669400  1
  H  64  1  0.48910200  0.00457300  0.58519600  1
  H  67  1  0.39543350  0.92076850  0.54516700  1
  H  68  1  0.43730300  0.00371600  0.76547700  1
  H  79  1  0.47281400  0.18589500  0.89855600  1
  H  84  1  0.49005450  0.19930550  0.70287900  1
  H  86  1  0.48345350  0.27531850  0.94147300  1
  H  93  1  0.62448300  0.42606800  0.23189200  1
  H  98  1  0.62064750  0.40878450  0.03622200  1
  H  100  1  0.70327050  0.41543550  0.27481600  1
  H  107  1  0.71295200  0.27438300  0.56521700  1
  H  112  1  0.69954950  0.27821650  0.36954300  1
  H  114  1  0.62353950  0.19559650  0.60814000  1
  H  121  1  0.39899200  0.73991200  0.89728900  1
  H  126  1  0.38359100  0.72691700  0.70152900  1
  H  128  1  0.38992200  0.65089000  0.94016300  1
  H  135  1  0.25232750  0.49988750  0.23062500  1
  H  140  1  0.25472100  0.51525500  0.03485900  1
  H  142  1  0.17236200  0.50894100  0.27349400  1
  H  149  1  0.15897000  0.64651500  0.56396400  1
  H  154  1  0.17193400  0.64413700  0.36819500  1
  H  156  1  0.24798250  0.72648750  0.60682600  1
  H  631  1  0.07644250  0.72281950  0.05866500  1
  H  632  1  0.02996400  0.83633600  0.98766900  1
  H  639  1  0.22812200  0.62803900  0.99003200  1
  H  640  1  0.11874150  0.67939650  0.91852900  1
  H  643  1  0.12860400  0.77306300  0.87850500  1
  H  644  1  0.16967750  0.73118450  0.09881200  1
  H  655  1  0.67187100  0.78390380  0.39200500  1
  H  656  1  0.83185820  0.83036420  0.32100300  1
  H  663  1  0.42540550  0.63222950  0.32336700  1
  H  664  1  0.58614500  0.74161980  0.25186800  1
  H  667  1  0.66994150  0.73175230  0.21183900  1
  H  668  1  0.58699500  0.69066580  0.43214800  1
  H  679  1  0.13753350  0.18847430  0.72532800  1
  H  680  1  0.02400500  0.02847975  0.65433500  1
  H  687  1  0.23228950  0.43493450  0.65669400  1
  H  688  1  0.18096000  0.27419880  0.58519600  1
  H  691  1  0.08729150  0.19039430  0.54516700  1
  H  692  1  0.12916100  0.27334180  0.76547700  1
  H  703  1  0.16467200  0.45552100  0.89855600  1
  H  708  1  0.18191250  0.46893150  0.70287900  1
  H  710  1  0.17531150  0.54494450  0.94147300  1
  H  717  1  0.31634100  0.69569400  0.23189200  1
  H  722  1  0.31250550  0.67841050  0.03622200  1
  H  724  1  0.39512850  0.68506150  0.27481600  1
  H  731  1  0.40481000  0.54400880  0.56521700  1
  H  736  1  0.39140750  0.54784230  0.36954300  1
  H  738  1  0.31539750  0.46522230  0.60814000  1
  H  745  1  0.09085000  0.00953800  0.89728900  1
  H  750  1  0.07544900  0.99654300  0.70152900  1
  H  752  1  0.08178000  0.92051600  0.94016300  1
  H  759  1  0.94418520  0.76951320  0.23062500  1
  H  764  1  0.94657870  0.78488070  0.03485900  1
  H  766  1  0.86421970  0.77856670  0.27349400  1
  H  773  1  0.85082770  0.91614050  0.56396400  1
  H  778  1  0.86379170  0.91376250  0.36819500  1
  H  780  1  0.93984020  0.99611300  0.60682600  1
  N  21  1  0.47009400  0.33999700  0.91071300  1
  N  22  1  0.56034800  0.42768100  0.06785000  1
  N  23  1  0.40522200  0.58757400  0.90914800  1
  N  24  1  0.31640100  0.49822800  0.06625900  1
  N  45  1  0.78130200  0.42878300  0.24405300  1
  N  46  1  0.77872850  0.33850950  0.40118200  1
  N  47  1  0.09374000  0.49362700  0.24248100  1
  N  48  1  0.09323500  0.58244600  0.39960200  1
  N  69  1  0.55886500  0.11756200  0.57737700  1
  N  70  1  0.47115400  0.12011700  0.73450800  1
  N  71  1  0.31128200  0.80511100  0.57581600  1
  N  72  1  0.40063550  0.80563050  0.73292600  1
  N  74  1  0.47450250  0.18058950  0.82301900  1
  N  77  1  0.47690550  0.28570250  0.82074200  1
  N  80  1  0.48162300  0.28958800  0.73239700  1
  N  88  1  0.61747750  0.42435250  0.15635700  1
  N  91  1  0.72019350  0.42196650  0.15408500  1
  N  94  1  0.71934300  0.41719800  0.06574000  1
  N  102  1  0.71825700  0.28138100  0.48968100  1
  N  105  1  0.61315400  0.17866200  0.48740200  1
  N  108  1  0.60925850  0.17950350  0.39905700  1
  N  116  1  0.39791050  0.74550650  0.82172700  1
  N  119  1  0.39780700  0.64152600  0.81946300  1
  N  122  1  0.39394600  0.63792400  0.73111900  1
  N  130  1  0.25900400  0.50096100  0.15506400  1
  N  133  1  0.15511200  0.50104000  0.15279200  1
  N  136  1  0.15536300  0.50487100  0.06444800  1
  N  144  1  0.15336700  0.63983800  0.48840000  1
  N  147  1  0.25732200  0.74374100  0.48612700  1
  N  150  1  0.26090000  0.74349300  0.39778300  1
  N  645  1  0.16195200  0.60962300  0.91071300  1
  N  646  1  0.25220600  0.69730700  0.06785000  1
  N  647  1  0.09708000  0.85720000  0.90914800  1
  N  648  1  0.00825900  0.76785400  0.06625900  1
  N  669  1  0.47316000  0.69840900  0.24405300  1
  N  670  1  0.47058650  0.60813530  0.40118200  1
  N  671  1  0.78559800  0.76325300  0.24248100  1
  N  672  1  0.78509300  0.85207180  0.39960200  1
  N  693  1  0.25072300  0.38718780  0.57737700  1
  N  694  1  0.16301200  0.38974300  0.73450800  1
  N  695  1  0.00314000  0.07473680  0.57581600  1
  N  696  1  0.09249350  0.07525650  0.73292600  1
  N  698  1  0.16636050  0.45021550  0.82301900  1
  N  701  1  0.16876350  0.55532850  0.82074200  1
  N  704  1  0.17348100  0.55921400  0.73239700  1
  N  712  1  0.30933550  0.69397850  0.15635700  1
  N  715  1  0.41205150  0.69159250  0.15408500  1
  N  718  1  0.41120100  0.68682400  0.06574000  1
  N  726  1  0.41011500  0.55100680  0.48968100  1
  N  729  1  0.30501200  0.44828780  0.48740200  1
  N  732  1  0.30111650  0.44912930  0.39905700  1
  N  740  1  0.08976850  0.01513250  0.82172700  1
  N  743  1  0.08966500  0.91115200  0.81946300  1
  N  746  1  0.08580400  0.90755000  0.73111900  1
  N  754  1  0.95086170  0.77058670  0.15506400  1
  N  757  1  0.84696970  0.77066570  0.15279200  1
  N  760  1  0.84722070  0.77449670  0.06444800  1
  N  768  1  0.84522470  0.90946350  0.48840000  1
  N  771  1  0.94917970  0.01336650  0.48612700  1
  N  774  1  0.95275770  0.01311850  0.39778300  1
  O  17  1  0.46192000  0.52246400  0.90749800  1
  O  18  1  0.49718600  0.48631700  0.06969200  1
  O  41  1  0.97193500  0.43694800  0.24083100  1
  O  42  1  0.90052850  0.40167550  0.40302400  1
  O  65  1  0.37640800  0.92691800  0.57416200  1
  O  66  1  0.41254400  0.99832200  0.73635500  1
  O  81  1  0.52780100  0.33986000  0.73120700  1
  O  82  1  0.43742400  0.29670100  0.72805900  1
  O  95  1  0.72343400  0.37101700  0.06457300  1
  O  96  1  0.77065550  0.46139150  0.06138300  1
  O  109  1  0.55898450  0.17540750  0.39787900  1
  O  110  1  0.60214550  0.12819050  0.39471100  1
  O  123  1  0.34838550  0.58720150  0.72967400  1
  O  124  1  0.43882000  0.63188200  0.72708000  1
  O  137  1  0.15018550  0.55042250  0.06298900  1
  O  138  1  0.10445400  0.45998500  0.06041800  1
  O  151  1  0.31163500  0.74867900  0.39632500  1
  O  152  1  0.26691500  0.79439800  0.39375400  1
  O  641  1  0.15377800  0.79209000  0.90749800  1
  O  642  1  0.18904400  0.75594300  0.06969200  1
  O  665  1  0.66379300  0.70657380  0.24083100  1
  O  666  1  0.59238650  0.67130130  0.40302400  1
  O  689  1  0.06826600  0.19654380  0.57416200  1
  O  690  1  0.10440200  0.26794780  0.73635500  1
  O  705  1  0.21965900  0.60948600  0.73120700  1
  O  706  1  0.12928200  0.56632700  0.72805900  1
  O  719  1  0.41529200  0.64064300  0.06457300  1
  O  720  1  0.46251350  0.73101750  0.06138300  1
  O  733  1  0.25084250  0.44503330  0.39787900  1
  O  734  1  0.29400350  0.39781630  0.39471100  1
  O  747  1  0.04024350  0.85682750  0.72967400  1
  O  748  1  0.13067800  0.90150800  0.72708000  1
  O  761  1  0.84204320  0.82004820  0.06298900  1
  O  762  1  0.79631200  0.72961100  0.06041800  1
  O  775  1  0.00349300  0.01830475  0.39632500  1
  O  776  1  0.95877270  0.06402350  0.39375400  1
