# generated using pymatgen
data_H6C10N3O2
_symmetry_space_group_name_H-M   'P 1'
_cell_length_a   19.72020000
_cell_length_b   19.72020000
_cell_length_c   35.75860000
_cell_angle_alpha   90.00000000
_cell_angle_beta   90.00000000
_cell_angle_gamma   90.00000000
_symmetry_Int_Tables_number   1
_chemical_formula_structural   H6C10N3O2
_chemical_formula_sum   'H96 C160 N48 O32'
_cell_volume   13906.02921951
_cell_formula_units_Z   16
loop_
 _symmetry_equiv_pos_site_id
 _symmetry_equiv_pos_as_xyz
  1  'x, y, z'
loop_
 _atom_site_type_symbol
 _atom_site_label
 _atom_site_symmetry_multiplicity
 _atom_site_fract_x
 _atom_site_fract_y
 _atom_site_fract_z
 _atom_site_occupancy
  C  1  1  0.14654200  0.09708600  0.14003700  1
  C  2  1  0.18856100  0.05348200  0.16119200  1
  C  3  1  0.18279700  0.05039300  0.20050600  1
  C  4  1  0.13509300  0.09200100  0.21895900  1
  C  5  1  0.09455100  0.13767000  0.19820900  1
  C  6  1  0.09915500  0.13930300  0.15867500  1
  C  9  1  0.15115800  0.09606700  0.10042200  1
  C  10  1  0.19851100  0.13712800  0.08101000  1
  C  11  1  0.20211700  0.13414500  0.04145200  1
  C  12  1  0.16021600  0.08849100  0.02147100  1
  C  13  1  0.11231100  0.04810000  0.04065200  1
  C  14  1  0.10800500  0.05246700  0.08001100  1
  C  23  1  0.65104700  0.09600200  0.64024500  1
  C  24  1  0.60550200  0.13871900  0.65963900  1
  C  25  1  0.60542600  0.14118400  0.69909800  1
  C  26  1  0.65185800  0.10094100  0.71940400  1
  C  27  1  0.69697000  0.05719300  0.70034300  1
  C  28  1  0.69721300  0.05523700  0.66073000  1
  C  31  1  0.64929300  0.09409100  0.60057100  1
  C  32  1  0.60519100  0.04938600  0.58128300  1
  C  33  1  0.60432600  0.04860300  0.54162600  1
  C  34  1  0.64628600  0.09376500  0.52136800  1
  C  35  1  0.69074800  0.13795400  0.54049600  1
  C  36  1  0.69250700  0.13732500  0.57996600  1
  C  45  1  0.14003900  0.59595200  0.60429900  1
  C  46  1  0.09758500  0.55289600  0.58308100  1
  C  47  1  0.10269600  0.55073400  0.54372000  1
  C  48  1  0.15016400  0.59265000  0.52529100  1
  C  49  1  0.19123400  0.63768500  0.54613100  1
  C  50  1  0.18722800  0.63848400  0.58569100  1
  C  53  1  0.13627100  0.59422200  0.64393400  1
  C  54  1  0.09304600  0.63862400  0.66399900  1
  C  55  1  0.09117000  0.63606300  0.70361700  1
  C  56  1  0.13140100  0.58821300  0.72305600  1
  C  57  1  0.17537300  0.54458600  0.70319500  1
  C  58  1  0.17790600  0.54834000  0.66377800  1
  C  67  1  0.63683000  0.59763000  0.10420600  1
  C  68  1  0.68025800  0.64262400  0.08487600  1
  C  69  1  0.67945000  0.64599400  0.04546500  1
  C  70  1  0.63579200  0.60303800  0.02501800  1
  C  71  1  0.59374600  0.55621800  0.04398100  1
  C  72  1  0.59374600  0.55383200  0.08360900  1
  C  75  1  0.63911800  0.59581700  0.14388300  1
  C  76  1  0.68583400  0.55341400  0.16290400  1
  C  77  1  0.68895000  0.55443800  0.20249200  1
  C  78  1  0.64717600  0.59943500  0.22296400  1
  C  79  1  0.60005400  0.64132400  0.20416800  1
  C  80  1  0.59616700  0.63895300  0.16473000  1
  C  89  1  0.89646800  0.34546100  0.35126600  1
  C  90  1  0.85310600  0.39008000  0.33167100  1
  C  91  1  0.85244800  0.39095400  0.29220600  1
  C  92  1  0.89451300  0.34600000  0.27204200  1
  C  93  1  0.93681000  0.29993500  0.29137600  1
  C  94  1  0.93910400  0.30073600  0.33098000  1
  C  97  1  0.89750500  0.34671300  0.39094000  1
  C  98  1  0.94140900  0.39112600  0.41059700  1
  C  99  1  0.94173900  0.39120300  0.45023000  1
  C  100  1  0.89881600  0.34645900  0.47013800  1
  C  101  1  0.85432600  0.30276000  0.45066000  1
  C  102  1  0.85468400  0.30254000  0.41116200  1
  C  111  1  0.89065900  0.84700400  0.85495400  1
  C  112  1  0.93305200  0.80221200  0.83485000  1
  C  113  1  0.93527300  0.80399400  0.79538800  1
  C  114  1  0.89455200  0.85104500  0.77580700  1
  C  115  1  0.85233600  0.89650100  0.79564500  1
  C  116  1  0.84928600  0.89363100  0.83519700  1
  C  119  1  0.89095300  0.84552000  0.89462800  1
  C  120  1  0.84549200  0.80358800  0.91483300  1
  C  121  1  0.84669400  0.80359400  0.95447100  1
  C  122  1  0.89295100  0.84578900  0.97381800  1
  C  123  1  0.93900000  0.88703600  0.95378600  1
  C  124  1  0.93689100  0.88731200  0.91430200  1
  C  133  1  0.39810800  0.34660800  0.88951400  1
  C  134  1  0.35793200  0.30027400  0.90996500  1
  C  135  1  0.36124700  0.29797200  0.94937600  1
  C  136  1  0.40464900  0.34293200  0.96864100  1
  C  137  1  0.44333000  0.39113100  0.94856800  1
  C  138  1  0.44107300  0.39226700  0.90895200  1
  C  141  1  0.39659000  0.34463600  0.84983100  1
  C  142  1  0.44091200  0.30134500  0.82969300  1
  C  143  1  0.43643300  0.29729200  0.79018900  1
  C  144  1  0.38925800  0.33831600  0.77078100  1
  C  145  1  0.34543100  0.38206500  0.79069600  1
  C  146  1  0.34953700  0.38508100  0.83010400  1
  C  155  1  0.38951800  0.84553800  0.39307700  1
  C  156  1  0.43477500  0.88817400  0.41271100  1
  C  157  1  0.43829600  0.88627300  0.45214200  1
  C  158  1  0.39601400  0.84128800  0.47219100  1
  C  159  1  0.35093700  0.79793200  0.45284700  1
  C  160  1  0.34667900  0.80094400  0.41331800  1
  C  163  1  0.38848400  0.84701900  0.35339100  1
  C  164  1  0.34410300  0.89081400  0.33364500  1
  C  165  1  0.34415400  0.89101600  0.29400400  1
  C  166  1  0.38797300  0.84697800  0.27418200  1
  C  167  1  0.43302100  0.80393100  0.29373000  1
  C  168  1  0.43221700  0.80362400  0.33322900  1
  C  177  1  0.98547600  0.92814900  0.97363000  1
  C  179  1  0.99740100  0.01104300  0.02218600  1
  C  180  1  0.06842600  0.00537400  0.02016400  1
  C  182  1  0.05705700  0.92160400  0.97151300  1
  C  187  1  0.81035800  0.26011600  0.47116700  1
  C  189  1  0.80359600  0.17739000  0.52010600  1
  C  190  1  0.73244800  0.18213600  0.51973400  1
  C  192  1  0.73862500  0.26583200  0.47085100  1
  C  197  1  0.29954900  0.42330000  0.77061600  1
  C  199  1  0.28919000  0.50508800  0.72143400  1
  C  200  1  0.21810400  0.50012600  0.72321300  1
  C  202  1  0.22793700  0.41722500  0.77238100  1
  C  207  1  0.47784300  0.76189800  0.27332300  1
  C  209  1  0.48640800  0.67965200  0.22419100  1
  C  210  1  0.55754900  0.68454600  0.22518100  1
  C  212  1  0.54955800  0.76774200  0.27432200  1
  C  217  1  0.23531500  0.68068700  0.52612700  1
  C  219  1  0.24016400  0.76711600  0.47930000  1
  C  220  1  0.30969100  0.75423400  0.47413400  1
  C  222  1  0.30534500  0.66705600  0.52104900  1
  C  227  1  0.73332800  0.51190100  0.22267800  1
  C  229  1  0.73994100  0.42562400  0.26955500  1
  C  230  1  0.81036600  0.43573900  0.27227200  1
  C  232  1  0.80418400  0.52315600  0.22554900  1
  C  237  1  0.55933400  0.18236100  0.71898400  1
  C  239  1  0.54958300  0.26809300  0.76605800  1
  C  240  1  0.47967000  0.25505300  0.76909200  1
  C  242  1  0.48885200  0.16875900  0.72180600  1
  C  247  1  0.98532800  0.43363000  0.47103000  1
  C  249  1  0.99074600  0.51837400  0.51884000  1
  C  250  1  0.06102700  0.50784400  0.52220900  1
  C  252  1  0.05604300  0.42196200  0.47455900  1
  C  257  1  0.80161900  0.76348000  0.97573100  1
  C  259  1  0.79280500  0.67732000  0.02259300  1
  C  260  1  0.72285000  0.68998400  0.02580400  1
  C  262  1  0.73129000  0.77739500  0.97919000  1
  C  267  1  0.30033700  0.93313300  0.27311400  1
  C  269  1  0.29473100  0.01816800  0.22546100  1
  C  270  1  0.22450400  0.00736300  0.22194100  1
  C  272  1  0.22973200  0.92106000  0.26938200  1
  C  277  1  0.24564000  0.17676700  0.02074100  1
  C  279  1  0.25002100  0.26137500  0.97285000  1
  C  280  1  0.32066900  0.25289600  0.97014000  1
  C  282  1  0.31671400  0.16706000  0.01785500  1
  C  287  1  0.73981400  0.01560200  0.72205500  1
  C  289  1  0.74246600  0.92979400  0.76926300  1
  C  290  1  0.81207000  0.94171100  0.77479200  1
  C  292  1  0.80991500  0.02835600  0.72751900  1
  C  297  1  0.48300500  0.92866100  0.47221600  1
  C  299  1  0.49102300  0.01124200  0.52109900  1
  C  300  1  0.56199600  0.00433900  0.52127300  1
  C  302  1  0.55455200  0.92120400  0.47215400  1
  C  307  1  0.97736000  0.75966200  0.77487300  1
  C  309  1  0.98013100  0.67767000  0.72548100  1
  C  310  1  0.05131700  0.68129500  0.72477900  1
  C  312  1  0.04916200  0.76386800  0.77429400  1
  C  317  1  0.05093300  0.18107800  0.21825200  1
  C  319  1  0.04721400  0.26716600  0.26528800  1
  C  320  1  0.97735200  0.25571100  0.27006500  1
  C  322  1  0.98058700  0.16881600  0.22298900  1
  C  327  1  0.48446700  0.43588100  0.96933500  1
  C  329  1  0.48431400  0.52075000  0.01715600  1
  C  330  1  0.55443100  0.51157800  0.02222600  1
  C  332  1  0.55513600  0.42600700  0.97436900  1
  H  7  1  0.22276000  0.02273100  0.14782200  1
  H  16  1  0.07373500  0.02273800  0.09401900  1
  H  19  1  0.02139800  0.15878500  0.12952600  1
  H  20  1  0.27524300  0.15713200  0.11097200  1
  H  21  1  0.09199100  0.06248200  0.26354400  1
  H  22  1  0.20202500  0.05857700  0.97659200  1
  H  29  1  0.57188000  0.16808100  0.64494600  1
  H  38  1  0.72434800  0.16983600  0.59383100  1
  H  41  1  0.77736600  0.03737200  0.63321200  1
  H  42  1  0.58901400  0.96449200  0.60424600  1
  H  43  1  0.68799400  0.13101100  0.76575600  1
  H  44  1  0.60622200  0.11960800  0.47521400  1
  H  51  1  0.06366300  0.52180900  0.59642400  1
  H  60  1  0.20984000  0.51671800  0.64935900  1
  H  63  1  0.26532900  0.65652200  0.61486700  1
  H  64  1  0.08037200  0.72600100  0.64330200  1
  H  65  1  0.19252700  0.56384700  0.48033400  1
  H  66  1  0.09033300  0.56047000  0.76856400  1
  H  73  1  0.71217400  0.67379000  0.09960200  1
  H  82  1  0.56279600  0.67010400  0.15101500  1
  H  85  1  0.57844700  0.46706200  0.10450800  1
  H  86  1  0.76334600  0.53492300  0.13320500  1
  H  87  1  0.59812000  0.63240100  0.97893500  1
  H  88  1  0.68888200  0.62736100  0.26828300  1
  H  95  1  0.82257200  0.42287300  0.34620700  1
  H  104  1  0.82304800  0.27023800  0.39700900  1
  H  107  1  0.02209300  0.27980300  0.35489600  1
  H  108  1  0.01953200  0.41121200  0.38161400  1
  H  109  1  0.93079400  0.37275700  0.22513300  1
  H  110  1  0.93682000  0.32060000  0.51681800  1
  H  117  1  0.96273000  0.76815000  0.84903400  1
  H  126  1  0.96940800  0.91809300  0.89972900  1
  H  129  1  0.76642100  0.91555500  0.85896200  1
  H  130  1  0.76541400  0.78737700  0.88673900  1
  H  131  1  0.85885600  0.82907600  0.72796900  1
  H  132  1  0.85813400  0.87320200  0.02098100  1
  H  139  1  0.32688700  0.26708100  0.89604100  1
  H  148  1  0.31794200  0.41698200  0.84455400  1
  H  151  1  0.51890900  0.41678300  0.88096200  1
  H  152  1  0.52508800  0.28749500  0.85400100  1
  H  153  1  0.44643900  0.31566500  0.01403000  1
  H  154  1  0.42135700  0.36172500  0.72236500  1
  H  161  1  0.46555200  0.92077600  0.39820000  1
  H  170  1  0.46418200  0.77173800  0.34744600  1
  H  173  1  0.26235400  0.78274700  0.39015500  1
  H  174  1  0.26530500  0.91009800  0.36221500  1
  H  175  1  0.36297700  0.86488400  0.52036900  1
  H  176  1  0.35076600  0.82088300  0.22735300  1
  H  183  1  0.97427900  0.04440500  0.03995500  1
  H  185  1  0.06691900  0.84564000  0.93312500  1
  H  186  1  0.13991600  0.87502000  0.94976200  1
  H  193  1  0.82845600  0.14425700  0.53728000  1
  H  195  1  0.72465700  0.34124200  0.43250200  1
  H  196  1  0.65347100  0.31112500  0.45102100  1
  H  203  1  0.31286500  0.53815300  0.70371200  1
  H  205  1  0.21733000  0.34289600  0.81166700  1
  H  206  1  0.14460300  0.37196200  0.79443700  1
  H  213  1  0.46209800  0.64679300  0.20662400  1
  H  215  1  0.56224000  0.84282800  0.31299800  1
  H  216  1  0.63401900  0.81300800  0.29504800  1
  H  223  1  0.21556500  0.80455000  0.46492000  1
  H  225  1  0.31839800  0.58770600  0.55695600  1
  H  226  1  0.38812700  0.61056800  0.53398600  1
  H  233  1  0.71564600  0.38901700  0.28471700  1
  H  235  1  0.81639800  0.60268800  0.18967100  1
  H  236  1  0.88750200  0.57682200  0.21023000  1
  H  243  1  0.57271400  0.30530000  0.78132700  1
  H  245  1  0.47890400  0.09006000  0.68512900  1
  H  246  1  0.40721600  0.11287700  0.70613400  1
  H  253  1  0.96602400  0.55435700  0.53424000  1
  H  255  1  0.06944900  0.34318000  0.43828600  1
  H  256  1  0.13976500  0.36832100  0.45987500  1
  H  263  1  0.81602500  0.63962500  0.03745500  1
  H  265  1  0.72112800  0.85814700  0.94394800  1
  H  266  1  0.64965300  0.83443000  0.96486300  1
  H  273  1  0.31934600  0.05449600  0.21025400  1
  H  275  1  0.21662400  0.84184100  0.30540000  1
  H  276  1  0.14627600  0.86672400  0.28374700  1
  H  283  1  0.22472300  0.29677500  0.95731500  1
  H  285  1  0.33081600  0.08940800  0.05475000  1
  H  286  1  0.40126300  0.11595100  0.03375400  1
  H  293  1  0.71714700  0.89259100  0.78344400  1
  H  295  1  0.82483000  0.10723900  0.69152500  1
  H  296  1  0.89381000  0.08337500  0.71485700  1
  H  303  1  0.46674300  0.04507900  0.53811000  1
  H  305  1  0.56678100  0.84644600  0.43326000  1
  H  306  1  0.63862800  0.87408200  0.45224300  1
  H  313  1  0.95387400  0.64535000  0.70846600  1
  H  315  1  0.06603800  0.83732600  0.81342300  1
  H  316  1  0.13593000  0.80671200  0.79363500  1
  H  323  1  0.07236500  0.30392600  0.27990400  1
  H  325  1  0.96654600  0.09002800  0.18682400  1
  H  326  1  0.89690700  0.11411000  0.20950100  1
  H  333  1  0.45769100  0.55614800  0.03199400  1
  H  335  1  0.57297800  0.34860100  0.93778200  1
  H  336  1  0.64111800  0.37479100  0.96109400  1
  N  178  1  0.95927600  0.97240800  0.99903700  1
  N  181  1  0.09457200  0.96129000  0.99473000  1
  N  184  1  0.09065200  0.87770000  0.94902700  1
  N  188  1  0.83929400  0.21649700  0.49602000  1
  N  191  1  0.70356000  0.22562400  0.49491800  1
  N  194  1  0.70268800  0.30932000  0.44923400  1
  N  198  1  0.32660400  0.46663800  0.74501100  1
  N  201  1  0.19108100  0.45690500  0.74883400  1
  N  204  1  0.19389500  0.37409200  0.79510600  1
  N  208  1  0.44987100  0.71839400  0.24807800  1
  N  211  1  0.58545000  0.72796000  0.25039500  1
  N  214  1  0.58477000  0.81101000  0.29643200  1
  N  218  1  0.20582200  0.72928700  0.50455800  1
  N  221  1  0.33921000  0.70575800  0.49571200  1
  N  224  1  0.34018700  0.61773600  0.53908900  1
  N  228  1  0.70441600  0.46435100  0.24519900  1
  N  231  1  0.83920400  0.48322300  0.24978300  1
  N  234  1  0.83892300  0.57132200  0.20652600  1
  N  238  1  0.58636200  0.23089900  0.74157700  1
  N  241  1  0.45255000  0.20682600  0.74641300  1
  N  244  1  0.45561200  0.11991600  0.70248500  1
  N  248  1  0.95589200  0.48057800  0.49374100  1
  N  251  1  0.09032200  0.46081600  0.49961300  1
  N  254  1  0.09138800  0.37417400  0.45557100  1
  N  258  1  0.82918600  0.71470300  0.99797400  1
  N  261  1  0.69534200  0.73863000  0.00358000  1
  N  264  1  0.69779400  0.82691800  0.96053700  1
  N  268  1  0.32963500  0.98043000  0.25056600  1
  N  271  1  0.19537200  0.95996200  0.24437000  1
  N  274  1  0.19459600  0.87282500  0.28814300  1
  N  278  1  0.21557400  0.22279000  0.99772200  1
  N  281  1  0.35069600  0.20687400  0.99309700  1
  N  284  1  0.35258000  0.12048100  0.03743100  1
  N  288  1  0.70923400  0.96755000  0.74353200  1
  N  291  1  0.84272900  0.98940600  0.75316300  1
  N  294  1  0.84588300  0.07684000  0.70946800  1
  N  298  1  0.45470600  0.97290800  0.49692900  1
  N  301  1  0.59027000  0.96043500  0.49643900  1
  N  304  1  0.58949100  0.87717800  0.45038300  1
  N  308  1  0.94633600  0.71723300  0.75016500  1
  N  311  1  0.08233100  0.72347600  0.74951100  1
  N  314  1  0.08675200  0.80597400  0.79588000  1
  N  318  1  0.08113400  0.22886600  0.24007600  1
  N  321  1  0.94712900  0.20804900  0.24824500  1
  N  324  1  0.94507600  0.12031200  0.20467900  1
  N  328  1  0.45220000  0.48194400  0.99141600  1
  N  331  1  0.58663600  0.46560300  0.00018000  1
  N  334  1  0.59287800  0.37935600  0.95593700  1
  O  8  1  0.13133500  0.09091000  0.25719700  1
  O  15  1  0.16259800  0.08668200  0.98322000  1
  O  17  1  0.06072900  0.18428100  0.13889300  1
  O  18  1  0.23742000  0.18282100  0.10001100  1
  O  30  1  0.65032700  0.10174200  0.75769900  1
  O  37  1  0.64605800  0.09316200  0.48307500  1
  O  39  1  0.73881200  0.01075400  0.64261400  1
  O  40  1  0.56372100  0.00706300  0.60097600  1
  O  52  1  0.15336900  0.59227500  0.48702900  1
  O  59  1  0.13079700  0.58654200  0.76133200  1
  O  61  1  0.22640500  0.68270000  0.60555200  1
  O  62  1  0.05365500  0.68401300  0.64510600  1
  O  74  1  0.63702800  0.60457400  0.98673500  1
  O  81  1  0.64938400  0.59968400  0.26123700  1
  O  83  1  0.55246800  0.50937500  0.10192800  1
  O  84  1  0.72516900  0.50874200  0.14341500  1
  O  96  1  0.89207400  0.34548200  0.23377300  1
  O  103  1  0.89771800  0.34759700  0.50842800  1
  O  105  1  0.97951200  0.25576200  0.34953200  1
  O  106  1  0.98071200  0.43662100  0.39165900  1
  O  118  1  0.89827600  0.85418400  0.73759500  1
  O  125  1  0.89558800  0.84446600  0.01207200  1
  O  127  1  0.80976000  0.93867600  0.85426100  1
  O  128  1  0.80330200  0.76009800  0.89636200  1
  O  140  1  0.40614900  0.34211400  0.00692600  1
  O  147  1  0.38411200  0.33426000  0.73265400  1
  O  149  1  0.47764000  0.43965900  0.88981300  1
  O  150  1  0.48476600  0.25996600  0.84843300  1
  O  162  1  0.40092100  0.83805300  0.51035800  1
  O  169  1  0.38945600  0.84830700  0.23590400  1
  O  171  1  0.30461600  0.75762000  0.39469600  1
  O  172  1  0.30421000  0.93583600  0.35253900  1
