# generated using pymatgen
data_CoH24(C5N)8
_symmetry_space_group_name_H-M   'P 1'
_cell_length_a   9.39596000
_cell_length_b   19.07598000
_cell_length_c   19.07463000
_cell_angle_alpha   117.30732000
_cell_angle_beta   99.50361000
_cell_angle_gamma   99.49272000
_symmetry_Int_Tables_number   1
_chemical_formula_structural   CoH24(C5N)8
_chemical_formula_sum   'Co3 H72 C120 N24'
_cell_volume   2880.98669913
_cell_formula_units_Z   3
loop_
 _symmetry_equiv_pos_site_id
 _symmetry_equiv_pos_as_xyz
  1  'x, y, z'
loop_
 _atom_site_type_symbol
 _atom_site_label
 _atom_site_symmetry_multiplicity
 _atom_site_fract_x
 _atom_site_fract_y
 _atom_site_fract_z
 _atom_site_occupancy
  Co  Co1  1  0.49754000  0.49945000  0.49888000  1.0
  Co  Co2  1  0.99995000  0.99994000  0.49990000  1.0
  Co  Co3  1  0.99916000  0.50020000  0.99979000  1.0
  H  H1  1  0.09300000  0.34138000  0.57527000  1.0
  H  H2  1  0.06849000  0.49631000  0.64748000  1.0
  H  H3  1  0.66601000  0.22754000  0.34717000  1.0
  H  H4  1  0.43648000  0.18600000  0.40041000  1.0
  H  H5  1  0.03495000  0.41942000  0.43122000  1.0
  H  H6  1  0.18145000  0.33669000  0.34495000  1.0
  H  H7  1  0.80639000  0.19850000  0.14599000  1.0
  H  H8  1  0.64120000  0.27265000  0.22553000  1.0
  H  H9  1  0.43581000  0.26145000  0.57840000  1.0
  H  H10  1  0.31553000  0.13260000  0.57590000  1.0
  H  H11  1  0.93672000  0.08400000  0.39778000  1.0
  H  H12  1  0.04185000  0.21041000  0.39223000  1.0
  H  H13  1  0.90687000  0.65854000  0.42519000  1.0
  H  H14  1  0.93100000  0.50343000  0.35275000  1.0
  H  H15  1  0.33345000  0.77231000  0.65304000  1.0
  H  H16  1  0.56345000  0.81385000  0.60004000  1.0
  H  H17  1  0.96325000  0.58054000  0.56861000  1.0
  H  H18  1  0.81744000  0.66340000  0.65535000  1.0
  H  H19  1  0.19352000  0.80125000  0.85374000  1.0
  H  H20  1  0.35792000  0.72697000  0.77366000  1.0
  H  H21  1  0.56311000  0.73846000  0.42137000  1.0
  H  H22  1  0.68365000  0.86739000  0.42413000  1.0
  H  H23  1  0.06225000  0.91568000  0.60214000  1.0
  H  H24  1  0.95714000  0.78917000  0.60744000  1.0
  H  H25  1  0.75128000  0.23334000  0.65810000  1.0
  H  H26  1  0.57146000  0.15017000  0.50301000  1.0
  H  H27  1  0.43970000  0.11969000  0.77245000  1.0
  H  H28  1  0.25123000  0.21412000  0.81390000  1.0
  H  H29  1  0.61752000  0.01205000  0.58089000  1.0
  H  H30  1  0.84637000  0.00811000  0.66378000  1.0
  H  H31  1  0.60930000  0.94821000  0.80199000  1.0
  H  H32  1  0.37005000  0.95380000  0.72765000  1.0
  H  H33  1  0.17582000  0.31736000  0.73951000  1.0
  H  H34  1  0.18377000  0.44339000  0.86823000  1.0
  H  H35  1  0.85246000  0.31330000  0.91568000  1.0
  H  H36  1  0.83162000  0.18156000  0.78933000  1.0
  H  H37  1  0.24844000  0.76666000  0.34139000  1.0
  H  H38  1  0.42856000  0.84961000  0.49647000  1.0
  H  H39  1  0.56033000  0.88018000  0.22705000  1.0
  H  H40  1  0.74881000  0.78589000  0.18562000  1.0
  H  H41  1  0.38182000  0.98782000  0.41899000  1.0
  H  H42  1  0.15315000  0.99193000  0.33610000  1.0
  H  H43  1  0.39066000  0.05192000  0.19813000  1.0
  H  H44  1  0.62967000  0.04601000  0.27240000  1.0
  H  H45  1  0.82430000  0.68254000  0.26059000  1.0
  H  H46  1  0.81605000  0.55660000  0.13163000  1.0
  H  H47  1  0.14747000  0.68702000  0.08446000  1.0
  H  H48  1  0.16780000  0.81854000  0.21097000  1.0
  H  H49  1  0.51764000  0.42471000  0.76589000  1.0
  H  H50  1  0.42037000  0.35236000  0.84862000  1.0
  H  H51  1  0.31916000  0.65327000  0.88011000  1.0
  H  H52  1  0.03611000  0.59970000  0.78531000  1.0
  H  H53  1  0.60511000  0.56902000  0.98801000  1.0
  H  H54  1  0.83837000  0.65573000  0.99208000  1.0
  H  H55  1  0.66222000  0.85430000  0.05258000  1.0
  H  H56  1  0.41687000  0.77434000  0.04655000  1.0
  H  H57  1  0.85684000  0.42147000  0.68240000  1.0
  H  H58  1  0.73889000  0.42441000  0.55628000  1.0
  H  H59  1  0.53866000  0.60217000  0.68626000  1.0
  H  H60  1  0.64969000  0.60734000  0.81804000  1.0
  H  H61  1  0.48206000  0.57517000  0.23334000  1.0
  H  H62  1  0.57872000  0.64748000  0.15043000  1.0
  H  H63  1  0.67965000  0.34658000  0.11895000  1.0
  H  H64  1  0.96277000  0.40011000  0.21382000  1.0
  H  H65  1  0.39436000  0.43074000  0.01137000  1.0
  H  H66  1  0.16157000  0.34418000  0.00781000  1.0
  H  H67  1  0.33779000  0.14591000  0.94772000  1.0
  H  H68  1  0.58255000  0.22560000  0.95301000  1.0
  H  H69  1  0.14131000  0.57792000  0.31644000  1.0
  H  H70  1  0.25890000  0.57498000  0.44267000  1.0
  H  H71  1  0.45955000  0.39752000  0.31312000  1.0
  H  H72  1  0.34933000  0.39247000  0.18130000  1.0
  C  C1  1  0.73570000  0.60897000  0.47293000  1.0
  C  C2  1  0.15138000  0.39281000  0.57127000  1.0
  C  C3  1  0.13796000  0.47125000  0.60735000  1.0
  C  C4  1  0.24069000  0.51725000  0.58455000  1.0
  C  C5  1  0.26814000  0.60215000  0.61339000  1.0
  C  C6  1  0.38069000  0.64860000  0.59896000  1.0
  C  C7  1  0.59846000  0.26590000  0.37850000  1.0
  C  C8  1  0.48300000  0.24511000  0.40670000  1.0
  C  C9  1  0.43114000  0.31742000  0.44629000  1.0
  C  C10  1  0.68280000  0.67769000  0.51431000  1.0
  C  C11  1  0.82437000  0.35272000  0.33568000  1.0
  C  C12  1  0.97955000  0.37108000  0.36822000  1.0
  C  C13  1  0.06165000  0.32453000  0.31945000  1.0
  C  C14  1  0.85321000  0.24720000  0.20986000  1.0
  C  C15  1  0.76095000  0.28897000  0.25405000  1.0
  C  C16  1  0.75177000  0.75341000  0.51396000  1.0
  C  C17  1  0.67414000  0.77647000  0.46231000  1.0
  C  C18  1  0.74088000  0.84797000  0.46363000  1.0
  C  C19  1  0.04638000  0.12519000  0.43722000  1.0
  C  C20  1  0.10483000  0.19543000  0.43431000  1.0
  C  C21  1  0.26261000  0.39060000  0.52653000  1.0
  C  C22  1  0.84762000  0.60691000  0.42861000  1.0
  C  C23  1  0.86081000  0.52844000  0.39244000  1.0
  C  C24  1  0.75724000  0.48233000  0.41478000  1.0
  C  C25  1  0.72982000  0.39740000  0.38586000  1.0
  C  C26  1  0.61720000  0.35091000  0.40019000  1.0
  C  C27  1  0.40028000  0.73378000  0.62117000  1.0
  C  C28  1  0.51592000  0.75455000  0.59307000  1.0
  C  C29  1  0.56702000  0.68206000  0.55302000  1.0
  C  C30  1  0.31569000  0.32192000  0.48521000  1.0
  C  C31  1  0.17413000  0.64700000  0.66384000  1.0
  C  C32  1  0.01893000  0.62882000  0.63158000  1.0
  C  C33  1  0.93728000  0.67546000  0.68062000  1.0
  C  C34  1  0.14625000  0.75260000  0.78988000  1.0
  C  C35  1  0.23808000  0.71074000  0.74542000  1.0
  C  C36  1  0.24711000  0.24624000  0.48571000  1.0
  C  C37  1  0.32487000  0.22332000  0.53745000  1.0
  C  C38  1  0.25818000  0.15192000  0.53634000  1.0
  C  C39  1  0.95255000  0.87451000  0.56266000  1.0
  C  C40  1  0.89414000  0.80416000  0.56539000  1.0
  C  C41  1  0.12691000  0.86395000  0.39089000  1.0
  C  C42  1  0.75871000  0.17808000  0.60675000  1.0
  C  C43  1  0.66648000  0.13551000  0.52829000  1.0
  C  C44  1  0.72331000  0.06686000  0.48231000  1.0
  C  C45  1  0.66537000  0.01075000  0.39737000  1.0
  C  C46  1  0.73158000  0.95002000  0.35083000  1.0
  C  C47  1  0.33371000  0.11278000  0.73406000  1.0
  C  C48  1  0.23871000  0.16152000  0.75473000  1.0
  C  C49  1  0.11442000  0.12879000  0.68232000  1.0
  C  C50  1  0.00499000  0.83650000  0.32208000  1.0
  C  C51  1  0.47323000  0.98342000  0.64745000  1.0
  C  C52  1  0.61016000  0.99743000  0.62922000  1.0
  C  C53  1  0.73872000  0.99501000  0.67588000  1.0
  C  C54  1  0.60752000  0.96318000  0.75320000  1.0
  C  C55  1  0.47352000  0.96573000  0.71133000  1.0
  C  C56  1  0.99830000  0.76048000  0.24629000  1.0
  C  C57  1  0.89749000  0.68564000  0.22282000  1.0
  C  C58  1  0.89287000  0.61560000  0.15131000  1.0
  C  C59  1  0.92120000  0.31165000  0.87463000  1.0
  C  C60  1  0.90968000  0.23864000  0.80440000  1.0
  C  C61  1  0.87251000  0.13575000  0.60902000  1.0
  C  C62  1  0.24105000  0.82178000  0.39291000  1.0
  C  C63  1  0.33327000  0.86422000  0.47138000  1.0
  C  C64  1  0.27614000  0.93266000  0.51759000  1.0
  C  C65  1  0.33383000  0.98877000  0.60254000  1.0
  C  C66  1  0.26758000  0.04955000  0.64897000  1.0
  C  C67  1  0.66589000  0.88694000  0.26564000  1.0
  C  C68  1  0.76092000  0.83822000  0.24494000  1.0
  C  C69  1  0.88484000  0.87086000  0.31754000  1.0
  C  C70  1  0.99430000  0.16322000  0.67790000  1.0
  C  C71  1  0.52621000  0.01636000  0.35252000  1.0
  C  C72  1  0.38922000  0.00245000  0.37066000  1.0
  C  C73  1  0.26081000  0.00495000  0.32399000  1.0
  C  C74  1  0.39231000  0.03679000  0.24681000  1.0
  C  C75  1  0.52618000  0.03411000  0.28869000  1.0
  C  C76  1  0.00134000  0.23938000  0.75373000  1.0
  C  C77  1  0.10242000  0.31419000  0.77718000  1.0
  C  C78  1  0.10692000  0.38437000  0.84855000  1.0
  C  C79  1  0.07855000  0.68845000  0.12535000  1.0
  C  C80  1  0.08998000  0.76136000  0.19572000  1.0
  C  C81  1  0.26300000  0.52692000  0.13559000  1.0
  C  C82  1  0.57989000  0.42866000  0.82132000  1.0
  C  C83  1  0.53009000  0.39249000  0.86362000  1.0
  C  C84  1  0.65582000  0.41495000  0.93227000  1.0
  C  C85  1  0.65422000  0.38594000  0.98821000  1.0
  C  C86  1  0.78133000  0.40042000  0.04916000  1.0
  C  C87  1  0.22032000  0.62167000  0.88708000  1.0
  C  C88  1  0.07648000  0.59336000  0.83812000  1.0
  C  C89  1  0.98523000  0.55340000  0.87072000  1.0
  C  C90  1  0.16858000  0.48545000  0.16289000  1.0
  C  C91  1  0.48997000  0.66436000  0.01669000  1.0
  C  C92  1  0.61270000  0.63202000  0.00268000  1.0
  C  C93  1  0.74392000  0.68102000  0.00516000  1.0
  C  C94  1  0.64504000  0.79039000  0.03726000  1.0
  C  C95  1  0.50820000  0.74599000  0.03453000  1.0
  C  C96  1  0.23780000  0.48578000  0.23897000  1.0
  C  C97  1  0.21139000  0.53708000  0.31356000  1.0
  C  C98  1  0.27651000  0.53566000  0.38373000  1.0
  C  C99  1  0.60896000  0.56274000  0.68786000  1.0
  C  C100  1  0.67038000  0.56543000  0.76092000  1.0
  C  C101  1  0.73619000  0.47311000  0.86371000  1.0
  C  C102  1  0.41927000  0.57157000  0.17819000  1.0
  C  C103  1  0.46891000  0.60763000  0.13577000  1.0
  C  C104  1  0.34327000  0.58503000  0.06705000  1.0
  C  C105  1  0.34498000  0.61401000  0.01107000  1.0
  C  C106  1  0.21775000  0.59963000  0.95024000  1.0
  C  C107  1  0.77858000  0.37854000  0.11237000  1.0
  C  C108  1  0.92242000  0.40691000  0.16135000  1.0
  C  C109  1  0.01382000  0.44665000  0.12863000  1.0
  C  C110  1  0.83064000  0.51440000  0.83627000  1.0
  C  C111  1  0.50951000  0.33554000  0.98272000  1.0
  C  C112  1  0.38681000  0.36781000  0.99684000  1.0
  C  C113  1  0.25590000  0.31889000  0.99468000  1.0
  C  C114  1  0.35485000  0.20970000  0.96277000  1.0
  C  C115  1  0.49134000  0.25400000  0.96510000  1.0
  C  C116  1  0.76119000  0.51399000  0.76013000  1.0
  C  C117  1  0.78693000  0.46246000  0.68541000  1.0
  C  C118  1  0.72137000  0.46382000  0.61525000  1.0
  C  C119  1  0.38929000  0.43689000  0.31136000  1.0
  C  C120  1  0.32842000  0.43433000  0.23834000  1.0
  N  N1  1  0.68400000  0.53299000  0.46470000  1.0
  N  N2  1  0.48450000  0.61869000  0.55820000  1.0
  N  N3  1  0.00166000  0.26330000  0.24136000  1.0
  N  N4  1  0.87863000  0.89644000  0.51253000  1.0
  N  N5  1  0.31356000  0.46648000  0.53439000  1.0
  N  N6  1  0.51295000  0.38067000  0.44067000  1.0
  N  N7  1  0.99772000  0.73664000  0.75870000  1.0
  N  N8  1  0.12035000  0.10346000  0.48756000  1.0
  N  N9  1  0.15170000  0.93173000  0.46687000  1.0
  N  N10  1  0.86577000  0.93943000  0.38080000  1.0
  N  N11  1  0.73998000  0.97824000  0.73716000  1.0
  N  N12  1  0.98263000  0.61628000  0.10322000  1.0
  N  N13  1  0.84757000  0.06777000  0.53312000  1.0
  N  N14  1  0.13330000  0.06014000  0.61907000  1.0
  N  N15  1  0.25980000  0.02187000  0.26280000  1.0
  N  N16  1  0.01680000  0.38380000  0.89651000  1.0
  N  N17  1  0.21987000  0.53494000  0.06766000  1.0
  N  N18  1  0.92611000  0.44110000  0.05989000  1.0
  N  N19  1  0.76217000  0.75917000  0.02215000  1.0
  N  N20  1  0.36563000  0.48700000  0.38337000  1.0
  N  N21  1  0.77930000  0.46494000  0.93156000  1.0
  N  N22  1  0.07297000  0.55879000  0.93942000  1.0
  N  N23  1  0.23771000  0.24086000  0.97798000  1.0
  N  N24  1  0.63244000  0.51264000  0.61578000  1.0
