# generated using pymatgen
data_Ni2H72W(C5N2)8
_symmetry_space_group_name_H-M   'P 1'
_cell_length_a   15.71578000
_cell_length_b   15.74113000
_cell_length_c   16.04430683
_cell_angle_alpha   112.95031958
_cell_angle_beta   106.47846605
_cell_angle_gamma   108.17746000
_symmetry_Int_Tables_number   1
_chemical_formula_structural   Ni2H72W(C5N2)8
_chemical_formula_sum   'Ni4 H144 W2 C80 N32'
_cell_volume   3077.43445890
_cell_formula_units_Z   2
loop_
 _symmetry_equiv_pos_site_id
 _symmetry_equiv_pos_as_xyz
  1  'x, y, z'
loop_
 _atom_site_type_symbol
 _atom_site_label
 _atom_site_symmetry_multiplicity
 _atom_site_fract_x
 _atom_site_fract_y
 _atom_site_fract_z
 _atom_site_occupancy
  Ni  Ni0  1  0.50215000  0.00224000  0.99870000  1
  Ni  Ni1  1  0.00384000  0.00352000  0.50163000  1
  Ni  Ni2  1  0.99593000  0.49654000  0.49946000  1
  Ni  Ni3  1  0.99726000  0.99635000  0.99988000  1
  H  H4  1  0.67542000  0.23992000  0.22551000  1
  H  H5  1  0.62087000  0.32271000  0.25192000  1
  H  H6  1  0.44665000  0.14933000  0.14178000  1
  H  H7  1  0.63624000  0.03313000  0.88762000  1
  H  H8  1  0.54622000  0.01618000  0.77693000  1
  H  H9  1  0.49030000  0.12519000  0.88531000  1
  H  H10  1  0.61988000  0.19672000  0.91925000  1
  H  H11  1  0.49488000  0.31678000  0.11287000  1
  H  H12  1  0.42768000  0.18086000  0.01687000  1
  H  H13  1  0.49467000  0.27464000  0.99338000  1
  H  H14  1  0.75559000  0.34418000  0.16071000  1
  H  H15  1  0.68902000  0.41757000  0.18013000  1
  H  H16  1  0.68181000  0.35022000  0.05859000  1
  H  H17  1  0.46587000  0.14505000  0.30045000  1
  H  H18  1  0.52810000  0.27638000  0.33190000  1
  H  H19  1  0.59920000  0.21085000  0.35226000  1
  H  H20  1  0.94707000  0.58792000  0.70669000  1
  H  H21  1  0.85447000  0.48383000  0.69907000  1
  H  H22  1  0.79832000  0.38676000  0.49881000  1
  H  H23  1  0.22146000  0.56123000  0.63513000  1
  H  H24  1  0.21934000  0.43855000  0.57111000  1
  H  H25  1  0.04956000  0.34603000  0.55732000  1
  H  H26  1  0.14558000  0.43478000  0.68623000  1
  H  H27  1  0.97631000  0.46297000  0.81209000  1
  H  H28  1  0.06825000  0.57668000  0.82824000  1
  H  H29  1  0.08205000  0.46121000  0.79458000  1
  H  H30  1  0.86617000  0.29616000  0.52559000  1
  H  H31  1  0.84493000  0.30835000  0.63177000  1
  H  H32  1  0.94921000  0.29280000  0.62355000  1
  H  H33  1  0.75704000  0.56874000  0.60374000  1
  H  H34  1  0.69608000  0.44113000  0.58418000  1
  H  H35  1  0.67764000  0.45676000  0.47814000  1
  H  H36  1  0.66102000  0.15955000  0.05383000  1
  H  H37  1  0.58717000  0.07123000  0.19381000  1
  H  H38  1  0.08871000  0.56221000  0.68295000  1
  H  H39  1  0.91381000  0.60917000  0.57266000  1
  H  H40  1  0.01460000  0.94995000  0.27469000  1
  H  H41  1  0.07109000  0.86906000  0.24790000  1
  H  H42  1  0.00791000  0.80530000  0.35856000  1
  H  H43  1  0.14540000  0.24803000  0.61245000  1
  H  H44  1  0.23911000  0.26852000  0.72309000  1
  H  H45  1  0.24002000  0.10473000  0.61480000  1
  H  H46  1  0.27771000  0.20007000  0.58074000  1
  H  H47  1  0.20445000  0.88215000  0.38682000  1
  H  H48  1  0.16429000  0.91071000  0.48294000  1
  H  H49  1  0.28166000  0.00099000  0.50641000  1
  H  H50  1  0.18369000  0.09458000  0.33903000  1
  H  H51  1  0.23780000  0.00865000  0.31942000  1
  H  H52  1  0.29195000  0.12286000  0.44092000  1
  H  H53  1  0.84499000  0.66602000  0.20005000  1
  H  H54  1  0.94508000  0.69678000  0.16849000  1
  H  H55  1  0.85897000  0.74728000  0.14805000  1
  H  H56  1  0.88137000  0.74098000  0.79305000  1
  H  H57  1  0.78497000  0.65608000  0.80091000  1
  H  H58  1  0.88829000  0.80023000  0.00112000  1
  H  H59  1  0.92563000  0.08635000  0.86465000  1
  H  H60  1  0.86699000  0.14806000  0.92917000  1
  H  H61  1  0.78853000  0.99237000  0.94298000  1
  H  H62  1  0.74817000  0.95959000  0.81415000  1
  H  H63  1  0.65067000  0.66490000  0.68847000  1
  H  H64  1  0.74812000  0.73996000  0.67159000  1
  H  H65  1  0.66646000  0.78778000  0.70556000  1
  H  H66  1  0.77052000  0.84075000  0.97466000  1
  H  H67  1  0.67666000  0.71373000  0.86862000  1
  H  H68  1  0.66918000  0.82599000  0.87679000  1
  H  H69  1  0.96535000  0.65407000  0.89607000  1
  H  H70  1  0.85754000  0.61313000  0.91645000  1
  H  H71  1  0.97941000  0.70078000  0.02201000  1
  H  H72  1  0.10575000  0.10674000  0.44612000  1
  H  H73  1  0.87759000  0.89356000  0.30656000  1
  H  H74  1  0.87905000  0.90609000  0.81683000  1
  H  H75  1  0.03668000  0.84142000  0.92655000  1
  H  H76  1  0.32821000  0.76516000  0.77124000  1
  H  H77  1  0.38101000  0.68084000  0.74398000  1
  H  H78  1  0.55687000  0.85422000  0.85677000  1
  H  H79  1  0.36743000  0.97114000  0.10879000  1
  H  H80  1  0.45681000  0.98724000  0.21950000  1
  H  H81  1  0.51195000  0.87743000  0.11131000  1
  H  H82  1  0.38197000  0.80689000  0.07663000  1
  H  H83  1  0.50596000  0.68503000  0.88359000  1
  H  H84  1  0.57400000  0.82127000  0.97904000  1
  H  H85  1  0.50653000  0.72869000  0.00341000  1
  H  H86  1  0.24616000  0.66065000  0.83555000  1
  H  H87  1  0.31180000  0.58618000  0.81532000  1
  H  H88  1  0.31909000  0.65326000  0.93696000  1
  H  H89  1  0.54109000  0.85929000  0.69910000  1
  H  H90  1  0.47795667  0.72762667  0.66666667  1
  H  H91  1  0.40758000  0.79370000  0.64533000  1
  H  H92  1  0.05082000  0.41220000  0.29429000  1
  H  H93  1  0.14394000  0.51965000  0.30663000  1
  H  H94  1  0.19476000  0.61063000  0.50538000  1
  H  H95  1  0.77198000  0.43263000  0.36489000  1
  H  H96  1  0.77330000  0.55527000  0.42821000  1
  H  H97  1  0.94321000  0.64825000  0.44341000  1
  H  H98  1  0.84784000  0.56059000  0.31430000  1
  H  H99  1  0.02362000  0.54264000  0.19457000  1
  H  H100  1  0.93152000  0.42559000  0.17317000  1
  H  H101  1  0.91536000  0.53987000  0.20877000  1
  H  H102  1  0.12663000  0.70097000  0.48010000  1
  H  H103  1  0.15104000  0.69317000  0.37663000  1
  H  H104  1  0.04513000  0.70628000  0.38267000  1
  H  H105  1  0.24097000  0.43326000  0.39917000  1
  H  H106  1  0.30134000  0.56324000  0.42382000  1
  H  H107  1  0.31721000  0.54272000  0.52671000  1
  H  H108  1  0.34254000  0.84546000  0.94329000  1
  H  H109  1  0.41650000  0.93157000  0.80270000  1
  H  H110  1  0.90538000  0.43317000  0.31496000  1
  H  H111  1  0.08080000  0.38658000  0.42618000  1
  H  H112  1  0.99343000  0.05692000  0.72901000  1
  H  H113  1  0.93632000  0.13699000  0.75636000  1
  H  H114  1  0.99734000  0.19987000  0.64349000  1
  H  H115  1  0.86267000  0.75914000  0.39172000  1
  H  H116  1  0.76800000  0.73777000  0.28102000  1
  H  H117  1  0.76580000  0.90047000  0.38896000  1
  H  H118  1  0.73020000  0.80560000  0.42397000  1
  H  H119  1  0.80097000  0.12232000  0.61671000  1
  H  H120  1  0.84203000  0.09485000  0.52117000  1
  H  H121  1  0.72490000  0.00342000  0.49691000  1
  H  H122  1  0.82449000  0.91099000  0.66500000  1
  H  H123  1  0.77018000  0.99685000  0.68522000  1
  H  H124  1  0.71573000  0.88260000  0.56367000  1
  H  H125  1  0.16018000  0.34111000  0.80114000  1
  H  H126  1  0.06069000  0.31062000  0.83355000  1
  H  H127  1  0.14791000  0.26133000  0.85479000  1
  H  H128  1  0.11803000  0.25615000  0.20506000  1
  H  H129  1  0.21302000  0.33676000  0.19236000  1
  H  H130  1  0.10496000  0.18905000  0.99373000  1
  H  H131  1  0.06815000  0.90729000  0.13452000  1
  H  H132  1  0.12758000  0.84542000  0.07083000  1
  H  H133  1  0.20537000  0.99978000  0.05569000  1
  H  H134  1  0.24671000  0.03350000  0.18472000  1
  H  H135  1  0.34828000  0.32851000  0.30393000  1
  H  H136  1  0.25280000  0.25817000  0.32588000  1
  H  H137  1  0.33152000  0.20643000  0.28998000  1
  H  H138  1  0.22114000  0.14675000  0.01863000  1
  H  H139  1  0.31681000  0.27405000  0.12218000  1
  H  H140  1  0.32369000  0.16206000  0.11576000  1
  H  H141  1  0.03359000  0.34101000  0.10038000  1
  H  H142  1  0.13867000  0.37666000  0.07499000  1
  H  H143  1  0.01509000  0.28960000  0.97259000  1
  H  H144  1  0.90225000  0.89979000  0.55736000  1
  H  H145  1  0.12861000  0.11330000  0.69729000  1
  H  H146  1  0.11850000  0.09029000  0.18423000  1
  H  H147  1  0.96044000  0.15438000  0.07376000  1
  W  W148  1  0.14606000  0.89565000  0.74971000  1
  W  W149  1  0.85232000  0.10219000  0.25005000  1
  C  C150  1  0.29169000  0.97012000  0.87652000  1
  C  C151  1  0.11289000  0.73753000  0.65422000  1
  C  C152  1  0.14038000  0.81792000  0.83629000  1
  C  C153  1  0.25522000  0.90042000  0.69071000  1
  C  C154  1  0.59251000  0.24780000  0.09705000  1
  C  C155  1  0.60616000  0.24524000  0.19535000  1
  C  C156  1  0.51926000  0.16258000  0.19273000  1
  C  C157  1  0.56285000  0.02941000  0.85363000  1
  C  C158  1  0.56536000  0.13227000  0.91879000  1
  C  C159  1  0.49662000  0.25450000  0.05182000  1
  C  C160  1  0.68539000  0.34568000  0.12593000  1
  C  C161  1  0.52875000  0.20099000  0.30064000  1
  C  C162  1  0.96713000  0.44966000  0.66873000  1
  C  C163  1  0.89896000  0.50192000  0.66061000  1
  C  C164  1  0.82510000  0.46965000  0.55352000  1
  C  C165  1  0.17188000  0.47685000  0.57930000  1
  C  C166  1  0.10103000  0.42939000  0.61583000  1
  C  C167  1  0.02736000  0.49027000  0.78277000  1
  C  C168  1  0.90331000  0.32999000  0.60818000  1
  C  C169  1  0.73373000  0.48533000  0.55505000  1
  C  C170  1  0.09357000  0.91460000  0.62308000  1
  C  C171  1  0.08346000  0.95836000  0.84516000  1
  C  C172  1  0.98170000  0.80352000  0.66354000  1
  C  C173  1  0.21008000  0.06347000  0.80829000  1
  C  C174  1  0.15109000  0.99535000  0.40286000  1
  C  C175  1  0.05018000  0.91085000  0.30466000  1
  C  C176  1  0.97018000  0.82683000  0.30754000  1
  C  C177  1  0.17571000  0.20867000  0.64639000  1
  C  C178  1  0.21360000  0.14616000  0.58122000  1
  C  C179  1  0.20306000  0.94469000  0.44796000  1
  C  C180  1  0.22004000  0.05917000  0.37370000  1
  C  C181  1  0.90076000  0.72854000  0.19971000  1
  C  C182  1  0.78091000  0.79878000  0.83133000  1
  C  C183  1  0.84145000  0.73890000  0.83926000  1
  C  C184  1  0.91641000  0.77219000  0.94627000  1
  C  C185  1  0.89721000  0.09248000  0.92068000  1
  C  C186  1  0.81331000  0.98528000  0.88432000  1
  C  C187  1  0.70733000  0.74495000  0.71737000  1
  C  C188  1  0.72181000  0.79552000  0.89209000  1
  C  C189  1  0.93081000  0.67965000  0.94504000  1
  C  C190  1  0.71576000  0.03774000  0.11893000  1
  C  C191  1  0.87488000  0.25283000  0.34870000  1
  C  C192  1  0.87279000  0.19159000  0.17770000  1
  C  C193  1  0.73680000  0.08035000  0.29894000  1
  C  C194  1  0.40955000  0.75567000  0.89916000  1
  C  C195  1  0.39675000  0.75860000  0.80112000  1
  C  C196  1  0.48487000  0.84106000  0.80476000  1
  C  C197  1  0.44047000  0.97426000  0.14294000  1
  C  C198  1  0.43733000  0.87117000  0.07760000  1
  C  C199  1  0.50477000  0.74801000  0.94447000  1
  C  C200  1  0.31591000  0.65821000  0.86989000  1
  C  C201  1  0.47729000  0.80304000  0.69761000  1
  C  C202  1  0.02845000  0.54929000  0.33442000  1
  C  C203  1  0.09772000  0.49827000  0.34253000  1
  C  C204  1  0.16951000  0.52859000  0.44952000  1
  C  C205  1  0.82089000  0.51710000  0.42032000  1
  C  C206  1  0.89197000  0.56508000  0.38427000  1
  C  C207  1  0.97089000  0.51184000  0.22085000  1
  C  C208  1  0.09118000  0.66916000  0.39784000  1
  C  C209  1  0.26255000  0.51571000  0.44974000  1
  C  C210  1  0.91902000  0.09677000  0.38122000  1
  C  C211  1  0.90451000  0.02622000  0.15127000  1
  C  C212  1  0.01411000  0.19510000  0.32219000  1
  C  C213  1  0.78178000  0.93816000  0.20136000  1
  C  C214  1  0.85609000  0.01048000  0.60117000  1
  C  C215  1  0.95702000  0.09556000  0.69917000  1
  C  C216  1  0.03604000  0.17975000  0.69542000  1
  C  C217  1  0.83152000  0.79790000  0.35756000  1
  C  C218  1  0.79351000  0.85989000  0.42288000  1
  C  C219  1  0.80319000  0.06036000  0.55582000  1
  C  C220  1  0.78775000  0.94639000  0.63066000  1
  C  C221  1  0.10521000  0.27898000  0.80260000  1
  C  C222  1  0.21504000  0.19375000  0.16448000  1
  C  C223  1  0.15578000  0.25480000  0.15662000  1
  C  C224  1  0.07885000  0.21959000  0.04980000  1
  C  C225  1  0.09721000  0.90083000  0.07896000  1
  C  C226  1  0.18122000  0.00777000  0.11486000  1
  C  C227  1  0.29128000  0.24974000  0.27796000  1
  C  C228  1  0.27150000  0.19312000  0.10087000  1
  C  C229  1  0.06536000  0.31206000  0.04952000  1
  N  N230  1  0.36945000  0.00232000  0.94627000  1
  N  N231  1  0.09281000  0.65121000  0.59554000  1
  N  N232  1  0.13109000  0.76852000  0.87608000  1
  N  N233  1  0.32018000  0.91271000  0.66623000  1
  N  N234  1  0.59003000  0.15146000  0.02275000  1
  N  N235  1  0.51902000  0.06035000  0.14768000  1
  N  N236  1  0.04009000  0.48376000  0.63029000  1
  N  N237  1  0.88145000  0.53084000  0.51828000  1
  N  N238  1  0.05604000  0.92305000  0.55366000  1
  N  N239  1  0.05573000  0.99723000  0.90375000  1
  N  N240  1  0.89250000  0.75426000  0.62393000  1
  N  N241  1  0.24699000  0.15262000  0.83234000  1
  N  N242  1  0.12891000  0.06700000  0.47726000  1
  N  N243  1  0.91288000  0.87158000  0.35267000  1
  N  N244  1  0.85326000  0.90997000  0.86956000  1
  N  N245  1  0.01281000  0.86352000  0.98111000  1
  N  N246  1  0.63669000  0.00135000  0.04902000  1
  N  N247  1  0.89557000  0.34063000  0.40278000  1
  N  N248  1  0.88111000  0.23959000  0.13678000  1
  N  N249  1  0.67273000  0.06776000  0.32427000  1
  N  N250  1  0.41321000  0.85258000  0.97392000  1
  N  N251  1  0.48498000  0.94327000  0.84929000  1
  N  N252  1  0.95341000  0.51126000  0.36952000  1
  N  N253  1  0.11176000  0.46421000  0.48169000  1
  N  N254  1  0.95242000  0.08753000  0.45109000  1
  N  N255  1  0.93820000  0.99282000  0.09701000  1
  N  N256  1  0.10308000  0.24450000  0.36300000  1
  N  N257  1  0.74399000  0.84898000  0.17623000  1
  N  N258  1  0.87854000  0.93952000  0.52651000  1
  N  N259  1  0.09380000  0.13530000  0.65080000  1
  N  N260  1  0.14211000  0.08384000  0.12964000  1
  N  N261  1  0.98243000  0.12977000  0.01803000  1
