# generated using pymatgen
data_H5C14(N3O2)2
_symmetry_space_group_name_H-M   'P 1'
_cell_length_a   30.11710000
_cell_length_b   30.11710000
_cell_length_c   40.04080000
_cell_angle_alpha   90.00000000
_cell_angle_beta   90.00000000
_cell_angle_gamma   90.00000000
_symmetry_Int_Tables_number   1
_chemical_formula_structural   H5C14(N3O2)2
_chemical_formula_sum   'H80 C224 N96 O64'
_cell_volume   36318.59571667
_cell_formula_units_Z   16
loop_
 _symmetry_equiv_pos_site_id
 _symmetry_equiv_pos_as_xyz
  1  'x, y, z'
loop_
 _atom_site_type_symbol
 _atom_site_label
 _atom_site_symmetry_multiplicity
 _atom_site_fract_x
 _atom_site_fract_y
 _atom_site_fract_z
 _atom_site_occupancy
  H  7  1  0.08782300  0.09975100  0.15095400  1
  H  16  1  0.20177300  0.12601500  0.08920800  1
  H  19  1  0.22850000  0.04392000  0.12014700  1
  H  20  1  0.08891300  0.01978100  0.10945000  1
  H  21  1  0.18149000  0.06530900  0.24871000  1
  H  22  1  0.11339500  0.08625600  0.98841300  1
  H  37  1  0.70010900  0.11385700  0.65728600  1
  H  46  1  0.58198400  0.10526400  0.59541700  1
  H  49  1  0.56484100  0.18664200  0.63303400  1
  H  50  1  0.71005400  0.19276500  0.61633300  1
  H  51  1  0.60513400  0.13566300  0.75707700  1
  H  52  1  0.67653800  0.13056900  0.49521700  1
  H  67  1  0.23102100  0.59137700  0.59835200  1
  H  76  1  0.10953400  0.61292000  0.65250600  1
  H  79  1  0.09609600  0.52065000  0.62737700  1
  H  80  1  0.23524000  0.51622700  0.65928700  1
  H  81  1  0.14350100  0.54574200  0.49900800  1
  H  82  1  0.19049700  0.60289600  0.75901000  1
  H  97  1  0.56605000  0.60874600  0.09818900  1
  H  106  1  0.68553600  0.60493100  0.16295600  1
  H  109  1  0.69355800  0.68900900  0.13075700  1
  H  110  1  0.54284000  0.67020000  0.15308000  1
  H  111  1  0.66325300  0.65059600  0.00316100  1
  H  112  1  0.58474700  0.58020800  0.25930500  1
  H  127  1  0.94259900  0.29403900  0.34038000  1
  H  136  1  0.91659400  0.41177900  0.39643300  1
  H  139  1  0.83314700  0.40382000  0.35945800  1
  H  140  1  0.85693000  0.26991700  0.37162600  1
  H  141  1  0.87976800  0.35687300  0.23592600  1
  H  142  1  0.87957500  0.32355800  0.49730200  1
  H  157  1  0.83737000  0.89769500  0.83785000  1
  H  166  1  0.86814700  0.78104700  0.89397500  1
  H  169  1  0.95114600  0.79222600  0.85581900  1
  H  170  1  0.92448000  0.92371300  0.86696200  1
  H  171  1  0.90152300  0.83763200  0.73314600  1
  H  172  1  0.91400100  0.86878700  0.99283600  1
  H  187  1  0.45992700  0.40273700  0.89640500  1
  H  196  1  0.44890400  0.27951800  0.84223500  1
  H  199  1  0.36030600  0.28525600  0.87238200  1
  H  200  1  0.37862500  0.41878800  0.85786400  1
  H  201  1  0.38420300  0.34103800  0.99621500  1
  H  202  1  0.46769400  0.36008400  0.73821600  1
  H  217  1  0.37459700  0.78262100  0.39819800  1
  H  226  1  0.38430300  0.90634100  0.34533200  1
  H  229  1  0.47080200  0.90511600  0.38054900  1
  H  230  1  0.46152800  0.76934900  0.36070200  1
  H  231  1  0.42835700  0.85165100  0.50341600  1
  H  232  1  0.42505700  0.82856400  0.23975400  1
  H  252  1  0.04374000  0.01200500  0.05347000  1
  H  254  1  0.95142500  0.94918000  0.92542800  1
  H  266  1  0.76126100  0.18687200  0.56204400  1
  H  268  1  0.83951800  0.23901900  0.43026600  1
  H  280  1  0.30649600  0.56668400  0.67553500  1
  H  282  1  0.35661400  0.43415500  0.79709100  1
  H  294  1  0.45807100  0.57688100  0.19449900  1
  H  296  1  0.47902600  0.74632200  0.29541100  1
  H  308  1  0.32027100  0.75875000  0.43686900  1
  H  310  1  0.25400100  0.64373000  0.56202600  1
  H  322  1  0.80603900  0.41992700  0.30093500  1
  H  324  1  0.71668800  0.54316200  0.18827600  1
  H  336  1  0.39353700  0.23891700  0.80106700  1
  H  338  1  0.51165200  0.17751800  0.68393700  1
  H  350  1  0.05483500  0.50473200  0.56949400  1
  H  352  1  0.96707000  0.43976900  0.43632400  1
  H  364  1  0.74477500  0.69568000  0.07333500  1
  H  366  1  0.82276700  0.75119300  0.93673900  1
  H  378  1  0.26790900  0.02917400  0.17586200  1
  H  380  1  0.33348800  0.93679800  0.30626200  1
  H  392  1  0.32424200  0.27461800  0.92991100  1
  H  394  1  0.22161400  0.18362600  0.05444500  1
  H  406  1  0.78385600  0.91935000  0.80048500  1
  H  408  1  0.72231300  0.05593700  0.68750800  1
  H  420  1  0.56006600  0.04706400  0.56218800  1
  H  422  1  0.49363900  0.92737200  0.44023100  1
  H  434  1  0.08210400  0.67516400  0.68114200  1
  H  436  1  0.97921300  0.78318200  0.79664200  1
  H  448  1  0.99443000  0.27023500  0.30373700  1
  H  450  1  0.05466500  0.14403200  0.18613800  1
  H  462  1  0.54661200  0.55623500  0.06196000  1
  H  464  1  0.50410500  0.43152800  0.93838200  1
  C  1  1  0.15368500  0.08724500  0.13665100  1
  C  2  1  0.11902700  0.09455800  0.15982900  1
  C  3  1  0.12552100  0.09566000  0.19471400  1
  C  4  1  0.16950600  0.09218900  0.20684300  1
  C  5  1  0.20572000  0.08727700  0.18445300  1
  C  6  1  0.19733400  0.08210100  0.14978000  1
  C  9  1  0.14395400  0.08978700  0.10138400  1
  C  10  1  0.10352400  0.07359300  0.08738000  1
  C  11  1  0.09101100  0.08498300  0.05434800  1
  C  12  1  0.12238200  0.10563900  0.03306900  1
  C  13  1  0.16421200  0.11887400  0.04553500  1
  C  14  1  0.17305200  0.11315800  0.07986200  1
  C  23  1  0.19673300  0.13685900  0.02370100  1
  C  24  1  0.04757900  0.07709600  0.04200400  1
  C  25  1  0.08907800  0.10384300  0.21670800  1
  C  26  1  0.24969200  0.08667300  0.19740300  1
  C  31  1  0.63552200  0.13380000  0.64376800  1
  C  32  1  0.66929000  0.12071000  0.66625700  1
  C  33  1  0.66200200  0.11417600  0.70066200  1
  C  34  1  0.61810600  0.11745200  0.71282200  1
  C  35  1  0.58260200  0.12790400  0.69088500  1
  C  36  1  0.59225100  0.14014000  0.65738900  1
  C  39  1  0.64442700  0.13261600  0.60823900  1
  C  40  1  0.68705000  0.14197300  0.59434800  1
  C  41  1  0.69787200  0.12794500  0.56154200  1
  C  42  1  0.66355900  0.11374000  0.53984100  1
  C  43  1  0.61996200  0.10805800  0.55201400  1
  C  44  1  0.61211000  0.11464300  0.58633400  1
  C  53  1  0.58580200  0.09232100  0.53068100  1
  C  54  1  0.74248700  0.12488000  0.55038100  1
  C  55  1  0.69697800  0.09815600  0.72132600  1
  C  56  1  0.53825500  0.12177500  0.70237500  1
  C  61  1  0.16590900  0.57257700  0.61154800  1
  C  62  1  0.20087400  0.58208000  0.58904400  1
  C  63  1  0.19537700  0.58149900  0.55405400  1
  C  64  1  0.15251200  0.57315900  0.54110000  1
  C  65  1  0.11637100  0.56466800  0.56288300  1
  C  66  1  0.12389100  0.56116900  0.59771700  1
  C  69  1  0.17225700  0.58244600  0.64645500  1
  C  70  1  0.21312400  0.57468300  0.66332000  1
  C  71  1  0.22304500  0.59535800  0.69451100  1
  C  72  1  0.18655800  0.61381000  0.71244500  1
  C  73  1  0.14423100  0.61806000  0.69755800  1
  C  74  1  0.13896100  0.60586100  0.66394200  1
  C  83  1  0.10759000  0.63419000  0.71609400  1
  C  84  1  0.26650800  0.59545500  0.70954100  1
  C  85  1  0.23076300  0.59476400  0.53266600  1
  C  86  1  0.07283100  0.56313400  0.54945600  1
  C  91  1  0.62842300  0.63087000  0.11543900  1
  C  92  1  0.59643400  0.61925500  0.09091300  1
  C  93  1  0.60508100  0.61887000  0.05626900  1
  C  94  1  0.64908900  0.62631100  0.04556800  1
  C  95  1  0.68272100  0.63614900  0.06914900  1
  C  96  1  0.67125500  0.64306200  0.10310600  1
  C  99  1  0.61922900  0.62133000  0.15046900  1
  C  100  1  0.57534700  0.61848200  0.16397600  1
  C  101  1  0.56642100  0.59291100  0.19303100  1
  C  102  1  0.60225200  0.58049700  0.21386300  1
  C  103  1  0.64637600  0.58863500  0.20369200  1
  C  104  1  0.65384700  0.60557500  0.17137500  1
  C  113  1  0.68246500  0.57516700  0.22401000  1
  C  114  1  0.52383800  0.57291900  0.19762400  1
  C  115  1  0.57200600  0.60464200  0.03319500  1
  C  116  1  0.72770200  0.63432600  0.05866000  1
  C  121  1  0.90431200  0.35114900  0.34928600  1
  C  122  1  0.92713300  0.32019500  0.32910900  1
  C  123  1  0.92715600  0.32259300  0.29394000  1
  C  124  1  0.90744300  0.35998400  0.27851600  1
  C  125  1  0.88667100  0.39316800  0.29813300  1
  C  126  1  0.88320400  0.38752300  0.33321000  1
  C  129  1  0.90330600  0.34470100  0.38477700  1
  C  130  1  0.89681500  0.30208200  0.39934200  1
  C  131  1  0.90192100  0.29587300  0.43416700  1
  C  132  1  0.90695200  0.33333333  0.45525800  1
  C  133  1  0.91077700  0.37633400  0.44140400  1
  C  134  1  0.91103600  0.38101900  0.40636800  1
  C  143  1  0.91668000  0.41397300  0.46226100  1
  C  144  1  0.89977300  0.25288600  0.44846000  1
  C  145  1  0.94255900  0.28576100  0.27493400  1
  C  146  1  0.86686200  0.43006100  0.28206200  1
  C  151  1  0.87731100  0.84158000  0.84647800  1
  C  152  1  0.85319800  0.87178200  0.82649600  1
  C  153  1  0.85296300  0.86922600  0.79131200  1
  C  154  1  0.87395400  0.83270200  0.77571500  1
  C  155  1  0.89621400  0.80043400  0.79521100  1
  C  156  1  0.89970700  0.80609200  0.83026200  1
  C  159  1  0.87951200  0.84834100  0.88187700  1
  C  160  1  0.88697000  0.89098400  0.89612800  1
  C  161  1  0.88553900  0.89695400  0.93116900  1
  C  162  1  0.88248700  0.85944400  0.95238300  1
  C  163  1  0.87744000  0.81646500  0.93866400  1
  C  164  1  0.87390400  0.81189300  0.90372200  1
  C  173  1  0.87478700  0.77861600  0.95968800  1
  C  174  1  0.89128600  0.93951100  0.94553700  1
  C  175  1  0.83689500  0.90560700  0.77224600  1
  C  176  1  0.91924700  0.76580000  0.77888200  1
  C  181  1  0.42758700  0.34224400  0.88605300  1
  C  182  1  0.44470300  0.37591500  0.90700600  1
  C  183  1  0.43861400  0.37528500  0.94192600  1
  C  184  1  0.41918000  0.33737900  0.95677100  1
  C  185  1  0.40422800  0.30177600  0.93662100  1
  C  186  1  0.40602100  0.30546200  0.90138700  1
  C  189  1  0.43128900  0.34670600  0.85048700  1
  C  190  1  0.42295800  0.38747700  0.83359100  1
  C  191  1  0.42868600  0.39083700  0.79852000  1
  C  192  1  0.43817200  0.35242700  0.77954200  1
  C  193  1  0.44244200  0.31109000  0.79583000  1
  C  194  1  0.44212400  0.30922000  0.83091700  1
  C  203  1  0.44448800  0.27132400  0.77754100  1
  C  204  1  0.41967100  0.43103000  0.78160200  1
  C  205  1  0.44764900  0.41382700  0.96118100  1
  C  206  1  0.38329300  0.26514100  0.95211500  1
  C  211  1  0.40573200  0.84443300  0.38964700  1
  C  212  1  0.38719100  0.81028900  0.40952200  1
  C  213  1  0.38676300  0.81246700  0.44470600  1
  C  214  1  0.40150900  0.85178400  0.46048200  1
  C  215  1  0.41812700  0.88749100  0.44119700  1
  C  216  1  0.42266000  0.88267700  0.40616000  1
  C  219  1  0.40549000  0.84037500  0.35392400  1
  C  220  1  0.41610800  0.79993600  0.33738800  1
  C  221  1  0.41033100  0.79605800  0.30245900  1
  C  222  1  0.39993200  0.83389400  0.28308600  1
  C  223  1  0.39218900  0.87513600  0.29886200  1
  C  224  1  0.39263300  0.87708200  0.33404400  1
  C  233  1  0.38464800  0.91395400  0.27962400  1
  C  234  1  0.41395700  0.75462300  0.28639800  1
  C  235  1  0.37367100  0.77508300  0.46390100  1
  C  236  1  0.43113000  0.92706000  0.45754800  1
  C  241  1  0.94996700  0.98642100  0.96656600  1
  C  243  1  0.96114700  0.99713700  0.02555500  1
  C  244  1  0.99856100  0.02389300  0.01886900  1
  C  246  1  0.98685000  0.01429200  0.96007500  1
  C  247  1  0.00204700  0.02296200  0.93039000  1
  C  248  1  0.94758000  0.98750700  0.05549200  1
  C  255  1  0.84597300  0.20143400  0.47083200  1
  C  257  1  0.84061400  0.19008700  0.53024600  1
  C  258  1  0.80067300  0.16636000  0.52572600  1
  C  260  1  0.80770900  0.17471000  0.46633900  1
  C  261  1  0.78885600  0.16716900  0.43767300  1
  C  262  1  0.85756100  0.19894300  0.55933400  1
  C  269  1  0.36316900  0.48373100  0.76418700  1
  C  271  1  0.36624600  0.52406000  0.71227300  1
  C  272  1  0.32697000  0.54730900  0.72073200  1
  C  274  1  0.32466200  0.50786700  0.77309300  1
  C  275  1  0.30234300  0.50268700  0.80062500  1
  C  276  1  0.38735100  0.52916400  0.68422100  1
  C  283  1  0.46193600  0.69907700  0.26234000  1
  C  285  1  0.44316900  0.66198500  0.21093200  1
  C  286  1  0.47869400  0.63198200  0.21557900  1
  C  288  1  0.49733500  0.66887100  0.26703700  1
  C  289  1  0.52313400  0.66807500  0.29304100  1
  C  290  1  0.41633400  0.66102500  0.18551600  1
  C  297  1  0.28312600  0.65263100  0.51822800  1
  C  299  1  0.28548100  0.68765100  0.46433800  1
  C  300  1  0.32141700  0.71484500  0.47467800  1
  C  302  1  0.32014200  0.67826800  0.52822100  1
  C  303  1  0.33834500  0.67614300  0.55763300  1
  C  304  1  0.26645700  0.68996600  0.43525100  1
  C  311  1  0.74709300  0.52822100  0.23109500  1
  C  313  1  0.76013500  0.49001000  0.28288100  1
  C  314  1  0.79965700  0.47139600  0.26987400  1
  C  316  1  0.78732200  0.51056300  0.21842100  1
  C  317  1  0.80244000  0.51832900  0.18856700  1
  C  318  1  0.74494800  0.48259500  0.31276300  1
  C  325  1  0.46907500  0.15538600  0.71749700  1
  C  327  1  0.45169900  0.16839300  0.77534300  1
  C  328  1  0.41872200  0.19918000  0.76550300  1
  C  330  1  0.43099400  0.18000000  0.70815900  1
  C  331  1  0.42075000  0.18888600  0.67733600  1
  C  332  1  0.46679700  0.16523200  0.80570700  1
  C  339  1  0.96726300  0.47243800  0.47984800  1
  C  341  1  0.97790500  0.48800800  0.53837800  1
  C  342  1  0.01473500  0.51522800  0.53079800  1
  C  344  1  0.00221500  0.50233800  0.47227800  1
  C  345  1  0.01717000  0.51032700  0.44240300  1
  C  346  1  0.96453000  0.47971000  0.56859400  1
  C  353  1  0.82704700  0.71988900  0.98074400  1
  C  355  1  0.82181400  0.70695300  0.04007000  1
  C  356  1  0.78389200  0.68021700  0.03515400  1
  C  358  1  0.79120000  0.69005200  0.97580900  1
  C  359  1  0.77338300  0.68099700  0.94700800  1
  C  360  1  0.83804400  0.71626000  0.06930300  1
  C  367  1  0.33708000  0.97703800  0.26625300  1
  C  369  1  0.34191200  0.01147100  0.21192500  1
  C  370  1  0.30149300  0.03382700  0.21765200  1
  C  372  1  0.29791100  0.00190100  0.27255200  1
  C  373  1  0.27380400  0.99870200  0.29938700  1
  C  374  1  0.36398500  0.01382500  0.18409900  1
  C  381  1  0.25563900  0.18888100  0.01166800  1
  C  383  1  0.27297800  0.21216000  0.95574900  1
  C  384  1  0.31297200  0.23174000  0.96703300  1
  C  386  1  0.29557800  0.20854500  0.02297900  1
  C  387  1  0.30885000  0.20795000  0.05386900  1
  C  388  1  0.25998800  0.21206000  0.92478100  1
  C  395  1  0.75065900  0.03937100  0.73017200  1
  C  397  1  0.75254800  0.99594400  0.78043100  1
  C  398  1  0.78632600  0.96858100  0.76679700  1
  C  400  1  0.78634600  0.01403100  0.71735000  1
  C  401  1  0.80418600  0.02008200  0.68811000  1
  C  402  1  0.73476700  0.99040900  0.80971800  1
  C  409  1  0.49071700  0.97641000  0.47384900  1
  C  411  1  0.49402100  0.01105000  0.52789100  1
  C  412  1  0.53191600  0.03553600  0.51801600  1
  C  414  1  0.52808800  0.00155900  0.46378400  1
  C  415  1  0.54630300  0.99922000  0.43440100  1
  C  416  1  0.47616400  0.01339200  0.55740300  1
  C  423  1  0.99043600  0.73477100  0.76371500  1
  C  425  1  0.00656900  0.70217800  0.71034000  1
  C  426  1  0.04710800  0.68534000  0.72290700  1
  C  428  1  0.03105600  0.71808300  0.77622700  1
  C  429  1  0.04492600  0.72350500  0.80671100  1
  C  430  1  0.99279300  0.69590900  0.67994100  1
  C  437  1  0.02885100  0.15354000  0.23061200  1
  C  439  1  0.02960700  0.19728700  0.28079300  1
  C  440  1  0.99219600  0.22171000  0.26952500  1
  C  442  1  0.98902500  0.17480100  0.22088100  1
  C  443  1  0.96806000  0.16668500  0.19314500  1
  C  444  1  0.05117100  0.20513700  0.30829500  1
  C  451  1  0.49384500  0.47821600  0.97328900  1
  C  453  1  0.48671900  0.51700400  0.02559500  1
  C  454  1  0.52247300  0.54518100  0.01691200  1
  C  456  1  0.52776900  0.50834200  0.96382100  1
  C  457  1  0.54907900  0.50684400  0.93561000  1
  C  458  1  0.46582800  0.51846900  0.05400700  1
  N  242  1  0.93926900  0.97933600  0.99922400  1
  N  245  1  0.00965800  0.03089600  0.98635500  1
  N  249  1  0.93534100  0.97933600  0.08194700  1
  N  250  1  0.01554300  0.03055900  0.90418400  1
  N  251  1  0.02818200  0.03645200  0.04267900  1
  N  253  1  0.93112100  0.96037000  0.94244500  1
  N  256  1  0.86042000  0.20725800  0.50280700  1
  N  259  1  0.78631300  0.15996800  0.49385800  1
  N  263  1  0.87280500  0.20625300  0.58503800  1
  N  264  1  0.77211500  0.16056300  0.41239100  1
  N  265  1  0.77083700  0.15987800  0.55076300  1
  N  267  1  0.86177100  0.22872100  0.44616700  1
  N  270  1  0.38194500  0.49334000  0.73406000  1
  N  273  1  0.30861200  0.53748100  0.75094300  1
  N  277  1  0.40598500  0.53378900  0.65944400  1
  N  278  1  0.28253800  0.49809800  0.82488800  1
  N  279  1  0.30352800  0.57372600  0.69896100  1
  N  281  1  0.37841200  0.44909600  0.78300100  1
  N  284  1  0.43701700  0.69403000  0.23417300  1
  N  287  1  0.50329500  0.63677700  0.24392000  1
  N  291  1  0.39255400  0.66043800  0.16310100  1
  N  292  1  0.54595100  0.66707200  0.31600200  1
  N  293  1  0.48474400  0.59511600  0.19622400  1
  N  295  1  0.45372800  0.73375800  0.28347800  1
  N  298  1  0.26766700  0.65891000  0.48665300  1
  N  301  1  0.33674500  0.70801900  0.50625600  1
  N  305  1  0.24960800  0.69197100  0.40956900  1
  N  306  1  0.35444900  0.67400800  0.58357900  1
  N  307  1  0.33810600  0.74921100  0.45583500  1
  N  309  1  0.25803000  0.62928900  0.54048300  1
  N  312  1  0.73589000  0.51674200  0.26285200  1
  N  315  1  0.81117900  0.48287400  0.23815100  1
  N  319  1  0.73168300  0.47615100  0.33920600  1
  N  320  1  0.81580800  0.52530200  0.16222400  1
  N  321  1  0.82315600  0.43955400  0.28647200  1
  N  323  1  0.71702300  0.55081200  0.21190900  1
  N  326  1  0.47696100  0.15069200  0.75082300  1
  N  329  1  0.40957100  0.20286900  0.73237000  1
  N  333  1  0.47999200  0.16269700  0.83254700  1
  N  334  1  0.41165600  0.19650600  0.65008400  1
  N  335  1  0.41493600  0.23762500  0.78284300  1
  N  337  1  0.50468300  0.15085500  0.69660600  1
  N  340  1  0.95688300  0.46750100  0.51277900  1
  N  343  1  0.02480500  0.52082000  0.49792700  1
  N  347  1  0.95243700  0.47281000  0.59529200  1
  N  348  1  0.03043700  0.51733300  0.41603800  1
  N  349  1  0.04537300  0.52789200  0.55407200  1
  N  351  1  0.94953200  0.44410200  0.45649100  1
  N  354  1  0.84057800  0.72602200  0.01290900  1
  N  357  1  0.77070400  0.67322800  0.00305900  1
  N  361  1  0.85273000  0.72392300  0.09513100  1
  N  362  1  0.75761500  0.67305500  0.92158900  1
  N  363  1  0.75462300  0.67037200  0.06006900  1
  N  365  1  0.84223400  0.74761400  0.95598100  1
  N  368  1  0.35702900  0.98409400  0.23616000  1
  N  371  1  0.28144200  0.02760000  0.24774200  1
  N  375  1  0.38367500  0.01625000  0.15961000  1
  N  376  1  0.25236700  0.99588800  0.32300800  1
  N  377  1  0.27667300  0.05118500  0.19242500  1
  N  379  1  0.35191200  0.94366200  0.28696900  1
  N  382  1  0.24652600  0.19198400  0.97845100  1
  N  385  1  0.32192100  0.22900500  0.00030300  1
  N  389  1  0.24867500  0.21189000  0.89739600  1
  N  390  1  0.32060500  0.20725400  0.08114500  1
  N  391  1  0.33939100  0.25716900  0.94697600  1
  N  393  1  0.22513800  0.16995800  0.03257100  1
  N  396  1  0.73572000  0.02889900  0.76124800  1
  N  399  1  0.80159300  0.97989000  0.73596900  1
  N  403  1  0.71922100  0.98568400  0.83566200  1
  N  404  1  0.82000800  0.02568400  0.66235900  1
  N  405  1  0.80167300  0.93082500  0.78213400  1
  N  407  1  0.72570600  0.06640900  0.71035200  1
  N  410  1  0.47573200  0.98263900  0.50559400  1
  N  413  1  0.54694800  0.02916100  0.48632100  1
  N  417  1  0.46036600  0.01563200  0.58345200  1
  N  418  1  0.56229400  0.99721600  0.40841000  1
  N  419  1  0.55724700  0.05947600  0.53983400  1
  N  421  1  0.47304600  0.94329000  0.45470800  1
  N  424  1  0.98039200  0.72603500  0.73121100  1
  N  427  1  0.05716900  0.69454100  0.75530400  1
  N  431  1  0.98063400  0.69019800  0.65310100  1
  N  432  1  0.05702400  0.72818600  0.83367900  1
  N  433  1  0.07794600  0.66404400  0.70377600  1
  N  435  1  0.96402900  0.76239600  0.78185700  1
  N  438  1  0.04687700  0.16596200  0.26033700  1
  N  441  1  0.97357200  0.20803200  0.24032600  1
  N  445  1  0.07008300  0.21181200  0.33268500  1
  N  446  1  0.94950600  0.15928100  0.16871700  1
  N  447  1  0.97671600  0.25925400  0.28518400  1
  N  449  1  0.05466600  0.13099400  0.20833000  1
  N  452  1  0.47500800  0.48487000  0.00377500  1
  N  455  1  0.54110700  0.53921400  0.98627000  1
  N  459  1  0.44734600  0.52002300  0.07906500  1
  N  460  1  0.56779300  0.50564500  0.91064000  1
  N  461  1  0.54425500  0.57018000  0.04011400  1
  N  463  1  0.48259900  0.44136000  0.95495200  1
  O  8  1  0.17710100  0.09573800  0.24039800  1
  O  15  1  0.11189500  0.11465500  0.00051100  1
  O  17  1  0.23252600  0.07405800  0.12913300  1
  O  18  1  0.07465600  0.04879300  0.10592400  1
  O  27  1  0.20266300  0.11530600  0.99431500  1
  O  28  1  0.02715500  0.11085000  0.02566800  1
  O  29  1  0.26041700  0.11653400  0.22143800  1
  O  30  1  0.08953400  0.08510800  0.24748000  1
  O  38  1  0.60983500  0.10723400  0.74550900  1
  O  45  1  0.67281300  0.10250500  0.50747400  1
  O  47  1  0.55856500  0.15516700  0.63762400  1
  O  48  1  0.71947000  0.16182700  0.61289900  1
  O  57  1  0.58243200  0.11134200  0.50010900  1
  O  58  1  0.75477900  0.08715300  0.53434700  1
  O  59  1  0.52942900  0.08455500  0.72024700  1
  O  60  1  0.69960100  0.11331100  0.75312400  1
  O  68  1  0.14550000  0.57635300  0.50744400  1
  O  75  1  0.19099900  0.62918000  0.74440500  1
  O  77  1  0.08908400  0.54994600  0.61788700  1
  O  78  1  0.24162400  0.54520800  0.64902000  1
  O  87  1  0.10081700  0.61558600  0.74650300  1
  O  88  1  0.27427600  0.62103500  0.73680500  1
  O  89  1  0.06085600  0.59621500  0.52832100  1
  O  90  1  0.23524100  0.57403800  0.50281700  1
  O  98  1  0.65963400  0.62066000  0.01260400  1
  O  105  1  0.59453800  0.55796500  0.24289900  1
  O  107  1  0.70351300  0.65938800  0.12363700  1
  O  108  1  0.54020700  0.63824100  0.14847200  1
  O  117  1  0.68111000  0.58776800  0.25647800  1
  O  118  1  0.52161600  0.52954500  0.20641900  1
  O  119  1  0.74020000  0.59868500  0.04020600  1
  O  120  1  0.57033600  0.62453800  0.00286400  1
  O  128  1  0.90945500  0.36426800  0.24455000  1
  O  135  1  0.91005300  0.32791500  0.48908600  1
  O  137  1  0.86028100  0.41844300  0.35130400  1
  O  138  1  0.88731500  0.26579800  0.38010200  1
  O  147  1  0.89006100  0.41724100  0.48942500  1
  O  148  1  0.93212300  0.24169000  0.47042200  1
  O  149  1  0.89287000  0.45457800  0.26153500  1
  O  150  1  0.91697900  0.27392200  0.24856200  1
  O  158  1  0.87224100  0.82866400  0.74171000  1
  O  165  1  0.88276900  0.86472300  0.98630800  1
  O  167  1  0.92453300  0.77633500  0.84805700  1
  O  168  1  0.89463000  0.92737500  0.87655000  1
  O  177  1  0.90426600  0.77605600  0.98517700  1
  O  178  1  0.86166200  0.95228800  0.96912500  1
  O  179  1  0.89585200  0.73940300  0.75789400  1
  O  180  1  0.86358400  0.91938600  0.74704700  1
  O  188  1  0.41552700  0.33518100  0.99079100  1
  O  195  1  0.43704700  0.35420700  0.74544400  1
  O  197  1  0.38703200  0.27250200  0.88275600  1
  O  198  1  0.40931800  0.42440900  0.85058700  1
  O  207  1  0.47521100  0.26908900  0.75283900  1
  O  208  1  0.45187900  0.44754900  0.76154500  1
  O  209  1  0.40647900  0.24338700  0.97604800  1
  O  210  1  0.41544400  0.42605300  0.98295900  1
  O  218  1  0.39820500  0.85557200  0.49443800  1
  O  225  1  0.39496400  0.83023100  0.24923300  1
  O  227  1  0.44204400  0.91637800  0.38855300  1
  O  228  1  0.43040300  0.76355500  0.35468300  1
  O  237  1  0.41209100  0.91997800  0.25319400  1
  O  238  1  0.37682500  0.73949900  0.27106300  1
  O  239  1  0.40059600  0.94683900  0.47745000  1
  O  240  1  0.40099400  0.76396300  0.48945300  1
