# generated using pymatgen
data_MoH9C7N3O
_symmetry_space_group_name_H-M   'P 1'
_cell_length_a   11.06806000
_cell_length_b   11.86459000
_cell_length_c   15.93809000
_cell_angle_alpha   87.72253000
_cell_angle_beta   89.89981000
_cell_angle_gamma   89.89152000
_symmetry_Int_Tables_number   1
_chemical_formula_structural   MoH9C7N3O
_chemical_formula_sum   'Mo8 H72 C56 N24 O8'
_cell_volume   2091.29809532
_cell_formula_units_Z   8
loop_
 _symmetry_equiv_pos_site_id
 _symmetry_equiv_pos_as_xyz
  1  'x, y, z'
loop_
 _atom_site_type_symbol
 _atom_site_label
 _atom_site_symmetry_multiplicity
 _atom_site_fract_x
 _atom_site_fract_y
 _atom_site_fract_z
 _atom_site_occupancy
  Mo  Mo1  1  0.38397000  0.07907000  0.97149000  1.0
  Mo  Mo2  1  0.62740000  0.49906000  0.54293000  1.0
  Mo  Mo3  1  0.85063000  0.89043000  0.01796000  1.0
  Mo  Mo4  1  0.14703000  0.54128000  0.49307000  1.0
  Mo  Mo5  1  0.64857000  0.88846000  0.01914000  1.0
  Mo  Mo6  1  0.35376000  0.54007000  0.49303000  1.0
  Mo  Mo7  1  0.11315000  0.07965000  0.97144000  1.0
  Mo  Mo8  1  0.87453000  0.49963000  0.54187000  1.0
  H  H1  1  0.43463000  0.19594000  0.18902000  1.0
  H  H2  1  0.44234000  0.82609000  0.39800000  1.0
  H  H3  1  0.32892000  0.99881000  0.25676000  1.0
  H  H4  1  0.05477000  0.00590000  0.39254000  1.0
  H  H5  1  0.13206000  0.00444000  0.49015000  1.0
  H  H6  1  0.05504000  0.19837000  0.44973000  1.0
  H  H7  1  0.05262000  0.18026000  0.29948000  1.0
  H  H8  1  0.13898000  0.30143000  0.32390000  1.0
  H  H9  1  0.56427000  0.52402000  0.30284000  1.0
  H  H10  1  0.55705000  0.15102000  0.10384000  1.0
  H  H11  1  0.66977000  0.32003000  0.24443000  1.0
  H  H12  1  0.94425000  0.33045000  0.10675000  1.0
  H  H13  1  0.86556000  0.33096000  0.01020000  1.0
  H  H14  1  0.94204000  0.52446000  0.04261000  1.0
  H  H15  1  0.94601000  0.50028000  0.19267000  1.0
  H  H16  1  0.85952000  0.62337000  0.16465000  1.0
  H  H17  1  0.94060000  0.84435000  0.79535000  1.0
  H  H18  1  0.93639000  0.18137000  0.57743000  1.0
  H  H19  1  0.82922000  0.04338000  0.70016000  1.0
  H  H20  1  0.55241000  0.03157000  0.56262000  1.0
  H  H21  1  0.63293000  0.03272000  0.46668000  1.0
  H  H22  1  0.55316000  0.84025000  0.51183000  1.0
  H  H23  1  0.55383000  0.86724000  0.66290000  1.0
  H  H24  1  0.63281000  0.74170000  0.63991000  1.0
  H  H25  1  0.05691000  0.42534000  0.70030000  1.0
  H  H26  1  0.05778000  0.79170000  0.91450000  1.0
  H  H27  1  0.16763000  0.61503000  0.78436000  1.0
  H  H28  1  0.44605000  0.61138000  0.92028000  1.0
  H  H29  1  0.36694000  0.61119000  0.01728000  1.0
  H  H30  1  0.44551000  0.41776000  0.98639000  1.0
  H  H31  1  0.44482000  0.44129000  0.83209000  1.0
  H  H32  1  0.36605000  0.31639000  0.86602000  1.0
  H  H33  1  0.55804000  0.84300000  0.79588000  1.0
  H  H34  1  0.55975000  0.18016000  0.58030000  1.0
  H  H35  1  0.66922000  0.04357000  0.70097000  1.0
  H  H36  1  0.94376000  0.03117000  0.56085000  1.0
  H  H37  1  0.86189000  0.03242000  0.46561000  1.0
  H  H38  1  0.94219000  0.83966000  0.50988000  1.0
  H  H39  1  0.94405000  0.86614000  0.66111000  1.0
  H  H40  1  0.86440000  0.74120000  0.63873000  1.0
  H  H41  1  0.44101000  0.41849000  0.69987000  1.0
  H  H42  1  0.44094000  0.79262000  0.91441000  1.0
  H  H43  1  0.32793000  0.61561000  0.78249000  1.0
  H  H44  1  0.05496000  0.61080000  0.92372000  1.0
  H  H45  1  0.13697000  0.61077000  0.01933000  1.0
  H  H46  1  0.05880000  0.41707000  0.98988000  1.0
  H  H47  1  0.05449000  0.43935000  0.83536000  1.0
  H  H48  1  0.13605000  0.31553000  0.86844000  1.0
  H  H49  1  0.06282000  0.19622000  0.18984000  1.0
  H  H50  1  0.05876000  0.82573000  0.39713000  1.0
  H  H51  1  0.16891000  0.99887000  0.25745000  1.0
  H  H52  1  0.44445000  0.00642000  0.39175000  1.0
  H  H53  1  0.36746000  0.00479000  0.48963000  1.0
  H  H54  1  0.44303000  0.19893000  0.44898000  1.0
  H  H55  1  0.44500000  0.17991000  0.29867000  1.0
  H  H56  1  0.35862000  0.30146000  0.32312000  1.0
  H  H57  1  0.93773000  0.51713000  0.30093000  1.0
  H  H58  1  0.94062000  0.15040000  0.10625000  1.0
  H  H59  1  0.83008000  0.31951000  0.24354000  1.0
  H  H60  1  0.55343000  0.33181000  0.10852000  1.0
  H  H61  1  0.63100000  0.33189000  0.01125000  1.0
  H  H62  1  0.55554000  0.52580000  0.04454000  1.0
  H  H63  1  0.55380000  0.50143000  0.19463000  1.0
  H  H64  1  0.64028000  0.62402000  0.16575000  1.0
  H  H65  1  0.24929000  0.17516000  0.53139000  1.0
  H  H66  1  0.24872000  0.29947000  0.46557000  1.0
  H  H67  1  0.74813000  0.50434000  0.96190000  1.0
  H  H68  1  0.74893000  0.62761000  0.02246000  1.0
  H  H69  1  0.74709000  0.85179000  0.42902000  1.0
  H  H70  1  0.74768000  0.73287000  0.49978000  1.0
  H  H71  1  0.25335000  0.43285000  0.06782000  1.0
  H  H72  1  0.25271000  0.31314000  0.00502000  1.0
  C  C1  1  0.35932000  0.18190000  0.14697000  1.0
  C  C2  1  0.34979000  0.79840000  0.40236000  1.0
  C  C3  1  0.13552000  0.03647000  0.42453000  1.0
  C  C4  1  0.13724000  0.16603000  0.42009000  1.0
  C  C5  1  0.13731000  0.20870000  0.32720000  1.0
  C  C6  1  0.63891000  0.50944000  0.34632000  1.0
  C  C7  1  0.64940000  0.12334000  0.11481000  1.0
  C  C8  1  0.86260000  0.36180000  0.07432000  1.0
  C  C9  1  0.86010000  0.49137000  0.07338000  1.0
  C  C10  1  0.86117000  0.53072000  0.16445000  1.0
  C  C11  1  0.84851000  0.83656000  0.81696000  1.0
  C  C12  1  0.85856000  0.23667000  0.56735000  1.0
  C  C13  1  0.63542000  0.00241000  0.53273000  1.0
  C  C14  1  0.63607000  0.87252000  0.54001000  1.0
  C  C15  1  0.63566000  0.83422000  0.63334000  1.0
  C  C16  1  0.14978000  0.42118000  0.67979000  1.0
  C  C17  1  0.15031000  0.81992000  0.90980000  1.0
  C  C18  1  0.36466000  0.58002000  0.95324000  1.0
  C  C19  1  0.36376000  0.45015000  0.95519000  1.0
  C  C20  1  0.36381000  0.40909000  0.86494000  1.0
  C  C21  1  0.65022000  0.83595000  0.81727000  1.0
  C  C22  1  0.63650000  0.23645000  0.56964000  1.0
  C  C23  1  0.86037000  0.00217000  0.53169000  1.0
  C  C24  1  0.85976000  0.87221000  0.53895000  1.0
  C  C25  1  0.86164000  0.83374000  0.63229000  1.0
  C  C26  1  0.34803000  0.41808000  0.67964000  1.0
  C  C27  1  0.34813000  0.82028000  0.90966000  1.0
  C  C28  1  0.13746000  0.57959000  0.95527000  1.0
  C  C29  1  0.13927000  0.44973000  0.95714000  1.0
  C  C30  1  0.13695000  0.40825000  0.86694000  1.0
  C  C31  1  0.13789000  0.18215000  0.14728000  1.0
  C  C32  1  0.15145000  0.79827000  0.40171000  1.0
  C  C33  1  0.36362000  0.03687000  0.42404000  1.0
  C  C34  1  0.36095000  0.16637000  0.41969000  1.0
  C  C35  1  0.36046000  0.20874000  0.32675000  1.0
  C  C36  1  0.86331000  0.50732000  0.34528000  1.0
  C  C37  1  0.84800000  0.12309000  0.11601000  1.0
  C  C38  1  0.63479000  0.36258000  0.07539000  1.0
  C  C39  1  0.63779000  0.49213000  0.07451000  1.0
  C  C40  1  0.63830000  0.53139000  0.16562000  1.0
  C  C41  1  0.24889000  0.16203000  0.28137000  1.0
  C  C42  1  0.24910000  0.03135000  0.28905000  1.0
  C  C43  1  0.24971000  0.99171000  0.38187000  1.0
  C  C44  1  0.24898000  0.20738000  0.46572000  1.0
  C  C45  1  0.75005000  0.48324000  0.21285000  1.0
  C  C46  1  0.74969000  0.35338000  0.21080000  1.0
  C  C47  1  0.74888000  0.31626000  0.11964000  1.0
  C  C48  1  0.74865000  0.53518000  0.02605000  1.0
  C  C49  1  0.74898000  0.88004000  0.67555000  1.0
  C  C50  1  0.74897000  0.01080000  0.66867000  1.0
  C  C51  1  0.74816000  0.05147000  0.57543000  1.0
  C  C52  1  0.74757000  0.82595000  0.49607000  1.0
  C  C53  1  0.24945000  0.45267000  0.82007000  1.0
  C  C54  1  0.24869000  0.58361000  0.81756000  1.0
  C  C55  1  0.25015000  0.62477000  0.90826000  1.0
  C  C56  1  0.25238000  0.40554000  0.00267000  1.0
  N  N1  1  0.38186000  0.15777000  0.06871000  1.0
  N  N2  1  0.31424000  0.69308000  0.42320000  1.0
  N  N3  1  0.61289000  0.49589000  0.42496000  1.0
  N  N4  1  0.68562000  0.01705000  0.10764000  1.0
  N  N5  1  0.81331000  0.82501000  0.89761000  1.0
  N  N6  1  0.87310000  0.34394000  0.55731000  1.0
  N  N7  1  0.18599000  0.42818000  0.59991000  1.0
  N  N8  1  0.18604000  0.92681000  0.91600000  1.0
  N  N9  1  0.68555000  0.82441000  0.89784000  1.0
  N  N10  1  0.61966000  0.34371000  0.56101000  1.0
  N  N11  1  0.31228000  0.42634000  0.59979000  1.0
  N  N12  1  0.31144000  0.92698000  0.91568000  1.0
  N  N13  1  0.11506000  0.15743000  0.06923000  1.0
  N  N14  1  0.18730000  0.69314000  0.42282000  1.0
  N  N15  1  0.88996000  0.49691000  0.42397000  1.0
  N  N16  1  0.81225000  0.01699000  0.10811000  1.0
  N  N17  1  0.24865000  0.18912000  0.18654000  1.0
  N  N18  1  0.25045000  0.86620000  0.39078000  1.0
  N  N19  1  0.75086000  0.50995000  0.30560000  1.0
  N  N20  1  0.74864000  0.19145000  0.11858000  1.0
  N  N21  1  0.74932000  0.84519000  0.76628000  1.0
  N  N22  1  0.74774000  0.17953000  0.56794000  1.0
  N  N23  1  0.24885000  0.41752000  0.73141000  1.0
  N  N24  1  0.24956000  0.75051000  0.90781000  1.0
  O  O1  1  0.24878000  0.14757000  0.91623000  1.0
  O  O2  1  0.75131000  0.52601000  0.62503000  1.0
  O  O3  1  0.75162000  0.77798000  0.08135000  1.0
  O  O4  1  0.24983000  0.45896000  0.41729000  1.0
  O  O5  1  0.52663000  0.99384000  0.97107000  1.0
  O  O6  1  0.49623000  0.59447000  0.56632000  1.0
  O  O7  1  0.96905000  0.99800000  0.96724000  1.0
  O  O8  1  0.00571000  0.59494000  0.56658000  1.0
