# generated using pymatgen
data_GdH6C21(NO3)6
_symmetry_space_group_name_H-M   'P 1'
_cell_length_a   14.48042000
_cell_length_b   14.52451000
_cell_length_c   24.02895000
_cell_angle_alpha   83.47702000
_cell_angle_beta   83.53682000
_cell_angle_gamma   61.83911000
_symmetry_Int_Tables_number   1
_chemical_formula_structural   GdH6C21(NO3)6
_chemical_formula_sum   'Gd4 H24 C84 N24 O72'
_cell_volume   4416.67396961
_cell_formula_units_Z   4
loop_
 _symmetry_equiv_pos_site_id
 _symmetry_equiv_pos_as_xyz
  1  'x, y, z'
loop_
 _atom_site_type_symbol
 _atom_site_label
 _atom_site_symmetry_multiplicity
 _atom_site_fract_x
 _atom_site_fract_y
 _atom_site_fract_z
 _atom_site_occupancy
  Gd  Gd0  1  0.41386000  0.92524000  0.99827000  1
  Gd  Gd1  1  0.07429000  0.58695000  0.50225000  1
  Gd  Gd2  1  0.58614000  0.07476000  0.00172000  1
  Gd  Gd3  1  0.92571000  0.41304000  0.49774000  1
  H  H4  1  0.34106000  0.04986000  0.13635000  1
  H  H5  1  0.03440000  0.29600000  0.09815000  1
  H  H6  1  0.10446000  0.26969000  0.41127000  1
  H  H7  1  0.20955000  0.48078000  0.31897000  1
  H  H8  1  0.20918000  0.83103000  0.90127000  1
  H  H9  1  0.51365000  0.74982000  0.81606000  1
  H  H10  1  0.94971000  0.66124000  0.36667000  1
  H  H11  1  0.69655000  0.96402000  0.40457000  1
  H  H12  1  0.73200000  0.89736000  0.09037000  1
  H  H13  1  0.51957000  0.79238000  0.18136000  1
  H  H14  1  0.17534000  0.78557000  0.59779000  1
  H  H15  1  0.24533000  0.48716000  0.68654000  1
  H  H16  1  0.65894000  0.95015000  0.86364000  1
  H  H17  1  0.96560000  0.70402000  0.90184000  1
  H  H18  1  0.89554000  0.73030000  0.58873000  1
  H  H19  1  0.79046000  0.51921000  0.68103000  1
  H  H20  1  0.79082000  0.16896000  0.09873000  1
  H  H21  1  0.48635000  0.25017000  0.18394000  1
  H  H22  1  0.05029000  0.33876000  0.63333000  1
  H  H23  1  0.30345000  0.03598000  0.59543000  1
  H  H24  1  0.26800000  0.10263000  0.90963000  1
  H  H25  1  0.48043000  0.20763000  0.81864000  1
  H  H26  1  0.82466000  0.21442000  0.40221000  1
  H  H27  1  0.75467000  0.51284000  0.31346000  1
  C  C28  1  0.20586000  0.13170000  0.05176000  1
  C  C29  1  0.19106000  0.17054000  0.10918000  1
  C  C30  1  0.26986000  0.12024000  0.14676000  1
  C  C31  1  0.25881000  0.16006000  0.19828000  1
  C  C32  1  0.16819000  0.24953000  0.21613000  1
  C  C33  1  0.08680000  0.29319000  0.17899000  1
  C  C34  1  0.09840000  0.25739000  0.12588000  1
  C  C35  1  0.16199000  0.29560000  0.26991000  1
  C  C36  1  0.12900000  0.26199000  0.32234000  1
  C  C37  1  0.12572000  0.30316000  0.37220000  1
  C  C38  1  0.15466000  0.38260000  0.37158000  1
  C  C39  1  0.18728000  0.41874000  0.32075000  1
  C  C40  1  0.18895000  0.37685000  0.27126000  1
  C  C41  1  0.38842000  0.83694000  0.91154000  1
  C  C42  1  0.36475000  0.79471000  0.86463000  1
  C  C43  1  0.26613000  0.79884000  0.86617000  1
  C  C44  1  0.23882000  0.76611000  0.82155000  1
  C  C45  1  0.30877000  0.72304000  0.77464000  1
  C  C46  1  0.40872000  0.71699000  0.77574000  1
  C  C47  1  0.43624000  0.75422000  0.81879000  1
  C  C48  1  0.14057000  0.43627000  0.42264000  1
  C  C49  1  0.86251000  0.79198000  0.45200000  1
  C  C50  1  0.82544000  0.80896000  0.39385000  1
  C  C51  1  0.87869000  0.73146000  0.35593000  1
  C  C52  1  0.84039000  0.74195000  0.30402000  1
  C  C53  1  0.75071000  0.83165000  0.28564000  1
  C  C54  1  0.70475000  0.91257000  0.32282000  1
  C  C55  1  0.73788000  0.90068000  0.37676000  1
  C  C56  1  0.70605000  0.83712000  0.23146000  1
  C  C57  1  0.74058000  0.86985000  0.17931000  1
  C  C58  1  0.69869000  0.87519000  0.12920000  1
  C  C59  1  0.61860000  0.84700000  0.12932000  1
  C  C60  1  0.58215000  0.81396000  0.17988000  1
  C  C61  1  0.62416000  0.81120000  0.22956000  1
  C  C62  1  0.16384000  0.60963000  0.58918000  1
  C  C63  1  0.20540000  0.63333000  0.63648000  1
  C  C64  1  0.20437000  0.73044000  0.63395000  1
  C  C65  1  0.23613000  0.75834000  0.67875000  1
  C  C66  1  0.27622000  0.68996000  0.72664000  1
  C  C67  1  0.28081000  0.59078000  0.72620000  1
  C  C68  1  0.24321000  0.56337000  0.68321000  1
  C  C69  1  0.56458000  0.86096000  0.07826000  1
  C  C70  1  0.79413000  0.86831000  0.94824000  1
  C  C71  1  0.80894000  0.82947000  0.89081000  1
  C  C72  1  0.73013000  0.87977000  0.85323000  1
  C  C73  1  0.74119000  0.83994000  0.80171000  1
  C  C74  1  0.83181000  0.75047000  0.78387000  1
  C  C75  1  0.91320000  0.70682000  0.82101000  1
  C  C76  1  0.90160000  0.74262000  0.87411000  1
  C  C77  1  0.83800000  0.70440000  0.73009000  1
  C  C78  1  0.87099000  0.73801000  0.67766000  1
  C  C79  1  0.87427000  0.69683000  0.62780000  1
  C  C80  1  0.84534000  0.61739000  0.62842000  1
  C  C81  1  0.81272000  0.58126000  0.67925000  1
  C  C82  1  0.81105000  0.62315000  0.72874000  1
  C  C83  1  0.61158000  0.16305000  0.08846000  1
  C  C84  1  0.63525000  0.20528000  0.13537000  1
  C  C85  1  0.73387000  0.20115000  0.13383000  1
  C  C86  1  0.76118000  0.23388000  0.17845000  1
  C  C87  1  0.69123000  0.27696000  0.22536000  1
  C  C88  1  0.59127000  0.28301000  0.22426000  1
  C  C89  1  0.56375000  0.24578000  0.18121000  1
  C  C90  1  0.85943000  0.56372000  0.57736000  1
  C  C91  1  0.13749000  0.20801000  0.54800000  1
  C  C92  1  0.17456000  0.19104000  0.60615000  1
  C  C93  1  0.12131000  0.26854000  0.64407000  1
  C  C94  1  0.15962000  0.25804000  0.69598000  1
  C  C95  1  0.24930000  0.16834000  0.71436000  1
  C  C96  1  0.29526000  0.08742000  0.67718000  1
  C  C97  1  0.26212000  0.09931000  0.62323000  1
  C  C98  1  0.29395000  0.16286000  0.76854000  1
  C  C99  1  0.25943000  0.13013000  0.82069000  1
  C  C100  1  0.30131000  0.12480000  0.87080000  1
  C  C101  1  0.38139000  0.15300000  0.87068000  1
  C  C102  1  0.41785000  0.18604000  0.82012000  1
  C  C103  1  0.37584000  0.18880000  0.77044000  1
  C  C104  1  0.83615000  0.39037000  0.41082000  1
  C  C105  1  0.79459000  0.36667000  0.36352000  1
  C  C106  1  0.79563000  0.26956000  0.36605000  1
  C  C107  1  0.76387000  0.24165000  0.32125000  1
  C  C108  1  0.72378000  0.31003000  0.27336000  1
  C  C109  1  0.71919000  0.40921000  0.27380000  1
  C  C110  1  0.75679000  0.43662000  0.31679000  1
  C  C111  1  0.43541000  0.13905000  0.92174000  1
  N  N112  1  0.34619000  0.10183000  0.23496000  1
  N  N113  1  0.98292000  0.37834000  0.19615000  1
  N  N114  1  0.09237000  0.18249000  0.32605000  1
  N  N115  1  0.22070000  0.42314000  0.21926000  1
  N  N116  1  0.49007000  0.66963000  0.73018000  1
  N  N117  1  0.13021000  0.78229000  0.82428000  1
  N  N118  1  0.90013000  0.65478000  0.26760000  1
  N  N119  1  0.62023000  0.01656000  0.30496000  1
  N  N120  1  0.82303000  0.90275000  0.17624000  1
  N  N121  1  0.57777000  0.77851000  0.28104000  1
  N  N122  1  0.32709000  0.51028000  0.77229000  1
  N  N123  1  0.22355000  0.86544000  0.67484000  1
  N  N124  1  0.65379000  0.89816000  0.76504000  1
  N  N125  1  0.01708000  0.62167000  0.80385000  1
  N  N126  1  0.90762000  0.81751000  0.67395000  1
  N  N127  1  0.77930000  0.57686000  0.78074000  1
  N  N128  1  0.50993000  0.33036000  0.26982000  1
  N  N129  1  0.86979000  0.21770000  0.17572000  1
  N  N130  1  0.09987000  0.34520000  0.73241000  1
  N  N131  1  0.37977000  0.98343000  0.69504000  1
  N  N132  1  0.17699000  0.09721000  0.82375000  1
  N  N133  1  0.42223000  0.22149000  0.71896000  1
  N  N134  1  0.67291000  0.48972000  0.22771000  1
  N  N135  1  0.77644000  0.13455000  0.32516000  1
  O  O136  1  0.28392000  0.03507000  0.04722000  1
  O  O137  1  0.15145000  0.18626000  0.01344000  1
  O  O138  1  0.41236000  0.01267000  0.22235000  1
  O  O139  1  0.96769000  0.40238000  0.24567000  1
  O  O140  1  0.91599000  0.41829000  0.16101000  1
  O  O141  1  0.24615000  0.37413000  0.17617000  1
  O  O142  1  0.22072000  0.50748000  0.22222000  1
  O  O143  1  0.12465000  0.12003000  0.28878000  1
  O  O144  1  0.03044000  0.18423000  0.36667000  1
  O  O145  1  0.33041000  0.85018000  0.95787000  1
  O  O146  1  0.46336000  0.86164000  0.90585000  1
  O  O147  1  0.07791000  0.80504000  0.86966000  1
  O  O148  1  0.09695000  0.77340000  0.78068000  1
  O  O149  1  0.57604000  0.66701000  0.73312000  1
  O  O150  1  0.46789000  0.63431000  0.69179000  1
  O  O151  1  0.18460000  0.49277000  0.42666000  1
  O  O152  1  0.07511000  0.43196000  0.46374000  1
  O  O153  1  0.34850000  0.14444000  0.27636000  1
  O  O154  1  0.96198000  0.71911000  0.45550000  1
  O  O155  1  0.80467000  0.83942000  0.49158000  1
  O  O156  1  0.99052000  0.59123000  0.28002000  1
  O  O157  1  0.60543000  0.03566000  0.25396000  1
  O  O158  1  0.57240000  0.07961000  0.34136000  1
  O  O159  1  0.62855000  0.74933000  0.32367000  1
  O  O160  1  0.49177000  0.78145000  0.27800000  1
  O  O161  1  0.88946000  0.86297000  0.21171000  1
  O  O162  1  0.81990000  0.96860000  0.13774000  1
  O  O163  1  0.15415000  0.66584000  0.54244000  1
  O  O164  1  0.13606000  0.53696000  0.59468000  1
  O  O165  1  0.21284000  0.91240000  0.62777000  1
  O  O166  1  0.22322000  0.90280000  0.71905000  1
  O  O167  1  0.32884000  0.42487000  0.76965000  1
  O  O168  1  0.36272000  0.53224000  0.81066000  1
  O  O169  1  0.50748000  0.81727000  0.07494000  1
  O  O170  1  0.56931000  0.92527000  0.03661000  1
  O  O171  1  0.85734000  0.65016000  0.22680000  1
  O  O172  1  0.71608000  0.96493000  0.95278000  1
  O  O173  1  0.84853000  0.81374000  0.98656000  1
  O  O174  1  0.58762000  0.98732000  0.77766000  1
  O  O175  1  0.03231000  0.59762000  0.75433000  1
  O  O176  1  0.08401000  0.58171000  0.83899000  1
  O  O177  1  0.75385000  0.62587000  0.82383000  1
  O  O178  1  0.77927000  0.49252000  0.77779000  1
  O  O179  1  0.87535000  0.87996000  0.71122000  1
  O  O180  1  0.96954000  0.81578000  0.63333000  1
  O  O181  1  0.66959000  0.14981000  0.04213000  1
  O  O182  1  0.53664000  0.13835000  0.09415000  1
  O  O183  1  0.92209000  0.19496000  0.13034000  1
  O  O184  1  0.90305000  0.22660000  0.21932000  1
  O  O185  1  0.42396000  0.33299000  0.26688000  1
  O  O186  1  0.53211000  0.36569000  0.30821000  1
  O  O187  1  0.81541000  0.50721000  0.57334000  1
  O  O188  1  0.92489000  0.56803000  0.53625000  1
  O  O189  1  0.65147000  0.85554000  0.72365000  1
  O  O190  1  0.03803000  0.28089000  0.54450000  1
  O  O191  1  0.19533000  0.16058000  0.50842000  1
  O  O192  1  0.00949000  0.40876000  0.71998000  1
  O  O193  1  0.39457000  0.96433000  0.74604000  1
  O  O194  1  0.42760000  0.92038000  0.65864000  1
  O  O195  1  0.37146000  0.25066000  0.67633000  1
  O  O196  1  0.50824000  0.21854000  0.72200000  1
  O  O197  1  0.11055000  0.13698000  0.78828000  1
  O  O198  1  0.18012000  0.03135000  0.86225000  1
  O  O199  1  0.84585000  0.33415000  0.45755000  1
  O  O200  1  0.86390000  0.46305000  0.40532000  1
  O  O201  1  0.78715000  0.08759000  0.37223000  1
  O  O202  1  0.77679000  0.09720000  0.28095000  1
  O  O203  1  0.67116000  0.57512000  0.23035000  1
  O  O204  1  0.63729000  0.46775000  0.18934000  1
  O  O205  1  0.49250000  0.18275000  0.92506000  1
  O  O206  1  0.43069000  0.07473000  0.96339000  1
  O  O207  1  0.14266000  0.34980000  0.77321000  1
