# generated using pymatgen
data_Zn4H18C36N2O17
_symmetry_space_group_name_H-M   'P 1'
_cell_length_a   10.37858000
_cell_length_b   30.76348000
_cell_length_c   31.24820000
_cell_angle_alpha   90.00000000
_cell_angle_beta   90.00000000
_cell_angle_gamma   91.29964000
_symmetry_Int_Tables_number   1
_chemical_formula_structural   Zn4H18C36N2O17
_chemical_formula_sum   'Zn16 H72 C144 N8 O68'
_cell_volume   9974.39743383
_cell_formula_units_Z   4
loop_
 _symmetry_equiv_pos_site_id
 _symmetry_equiv_pos_as_xyz
  1  'x, y, z'
loop_
 _atom_site_type_symbol
 _atom_site_label
 _atom_site_symmetry_multiplicity
 _atom_site_fract_x
 _atom_site_fract_y
 _atom_site_fract_z
 _atom_site_occupancy
  Zn  Zn0  1  0.17112000  0.32159000  0.32540000  1
  Zn  Zn1  1  0.47813000  0.16322000  0.91869000  1
  Zn  Zn2  1  0.47106000  0.08940000  0.84295000  1
  Zn  Zn3  1  0.97813000  0.66322000  0.58131000  1
  Zn  Zn4  1  0.12692000  0.68129000  0.66598000  1
  Zn  Zn5  1  0.37309000  0.81872000  0.16598000  1
  Zn  Zn6  1  0.52894000  0.91060000  0.15705000  1
  Zn  Zn7  1  0.02894000  0.41060000  0.34295000  1
  Zn  Zn8  1  0.62691000  0.18129000  0.83402000  1
  Zn  Zn9  1  0.32888000  0.17841000  0.82541000  1
  Zn  Zn10  1  0.52188000  0.83679000  0.08131000  1
  Zn  Zn11  1  0.82889000  0.67842000  0.67460000  1
  Zn  Zn12  1  0.87309000  0.31871000  0.33402000  1
  Zn  Zn13  1  0.67112000  0.82159000  0.17460000  1
  Zn  Zn14  1  0.97107000  0.58940000  0.65705000  1
  Zn  Zn15  1  0.02187000  0.33679000  0.41869000  1
  H  H16  1  0.99506000  0.42222000  0.52163000  1
  H  H17  1  0.02793000  0.87858000  0.18319000  1
  H  H18  1  0.72544000  0.27751000  0.50185000  1
  H  H19  1  0.72882000  0.68846000  0.22503000  1
  H  H20  1  0.22881000  0.18846000  0.27497000  1
  H  H21  1  0.37553000  0.22493000  0.61324000  1
  H  H22  1  0.49506000  0.92222000  0.97837000  1
  H  H23  1  0.32637000  0.49324000  0.27853000  1
  H  H24  1  0.68754000  0.61413000  0.25204000  1
  H  H25  1  0.27456000  0.72249000  0.49815000  1
  H  H26  1  0.82637000  0.99324000  0.22147000  1
  H  H27  1  0.19271000  0.21883000  0.00207000  1
  H  H28  1  0.65026000  0.80658000  0.31445000  1
  H  H29  1  0.86530000  0.94442000  0.76610000  1
  H  H30  1  0.74472000  0.49448000  0.28492000  1
  H  H31  1  0.14649000  0.81021000  0.66777000  1
  H  H32  1  0.69271000  0.71883000  0.49793000  1
  H  H33  1  0.30729000  0.28117000  0.50207000  1
  H  H34  1  0.67364000  0.50677000  0.72147000  1
  H  H35  1  0.52792000  0.37857000  0.31681000  1
  H  H36  1  0.51865000  0.30810000  0.38658000  1
  H  H37  1  0.85351000  0.18979000  0.33223000  1
  H  H38  1  0.50494000  0.07779000  0.02163000  1
  H  H39  1  0.34975000  0.19342000  0.68555000  1
  H  H40  1  0.17363000  0.00677000  0.77853000  1
  H  H41  1  0.15025000  0.30658000  0.18555000  1
  H  H42  1  0.64649000  0.31021000  0.83223000  1
  H  H43  1  0.81247000  0.88588000  0.75204000  1
  H  H44  1  0.47208000  0.62143000  0.68319000  1
  H  H45  1  0.76237000  0.26785000  0.21729000  1
  H  H46  1  0.41907000  0.25653000  0.56084000  1
  H  H47  1  0.52170000  0.01889000  0.07709000  1
  H  H48  1  0.80731000  0.78117000  0.99793000  1
  H  H49  1  0.23763000  0.73215000  0.78271000  1
  H  H50  1  0.58093000  0.74347000  0.43916000  1
  H  H51  1  0.48135000  0.69190000  0.61342000  1
  H  H52  1  0.30870000  0.61387000  0.19499000  1
  H  H53  1  0.47830000  0.98111000  0.92291000  1
  H  H54  1  0.25529000  0.50552000  0.71508000  1
  H  H55  1  0.63471000  0.55558000  0.26610000  1
  H  H56  1  0.22545000  0.77751000  0.99815000  1
  H  H57  1  0.00494000  0.57779000  0.47837000  1
  H  H58  1  0.19131000  0.88613000  0.69499000  1
  H  H59  1  0.84975000  0.69342000  0.81445000  1
  H  H60  1  0.77456000  0.22249000  0.00185000  1
  H  H61  1  0.01867000  0.80810000  0.11342000  1
  H  H62  1  0.35352000  0.68979000  0.16777000  1
  H  H63  1  0.62447000  0.77507000  0.38676000  1
  H  H64  1  0.91908000  0.75653000  0.93916000  1
  H  H65  1  0.26633000  0.76446000  0.85610000  1
  H  H66  1  0.24472000  0.99448000  0.21508000  1
  H  H67  1  0.97208000  0.12143000  0.81681000  1
  H  H68  1  0.02170000  0.51889000  0.42291000  1
  H  H69  1  0.98135000  0.19190000  0.88658000  1
  H  H70  1  0.75528000  0.00552000  0.78492000  1
  H  H71  1  0.73367000  0.23555000  0.14390000  1
  H  H72  1  0.73763000  0.23215000  0.71729000  1
  H  H73  1  0.27119000  0.31154000  0.77497000  1
  H  H74  1  0.69130000  0.38613000  0.80501000  1
  H  H75  1  0.76633000  0.26445000  0.64390000  1
  H  H76  1  0.12447000  0.27507000  0.11324000  1
  H  H77  1  0.87554000  0.72493000  0.88676000  1
  H  H78  1  0.36529000  0.44442000  0.73390000  1
  H  H79  1  0.13471000  0.05558000  0.23390000  1
  H  H80  1  0.77119000  0.81154000  0.72503000  1
  H  H81  1  0.18753000  0.11413000  0.24796000  1
  H  H82  1  0.31247000  0.38588000  0.74796000  1
  H  H83  1  0.26238000  0.76786000  0.28271000  1
  H  H84  1  0.08093000  0.24347000  0.06084000  1
  H  H85  1  0.80870000  0.11387000  0.30501000  1
  H  H86  1  0.23368000  0.73555000  0.35610000  1
  H  H87  1  0.97830000  0.48111000  0.57709000  1
  C  C88  1  0.07502000  0.82758000  0.68614000  1
  C  C89  1  0.95622000  0.80664000  0.69476000  1
  C  C90  1  0.72245000  0.69479000  0.58112000  1
  C  C91  1  0.36590000  0.70728000  0.55813000  1
  C  C92  1  0.22244000  0.19479000  0.91888000  1
  C  C93  1  0.63746000  0.67175000  0.21849000  1
  C  C94  1  0.41411000  0.43352000  0.29836000  1
  C  C95  1  0.45621000  0.30664000  0.80524000  1
  C  C96  1  0.04334000  0.27294000  0.13535000  1
  C  C97  1  0.94066000  0.70893000  0.82394000  1
  C  C98  1  0.96426000  0.00144000  0.77831000  1
  C  C99  1  0.08427000  0.02334000  0.78446000  1
  C  C100  1  0.98360000  0.22342000  0.00703000  1
  C  C101  1  0.85149000  0.06538000  0.80243000  1
  C  C102  1  0.43446000  0.26080000  0.82047000  1
  C  C103  1  0.32410000  0.75116000  0.34648000  1
  C  C104  1  0.02974000  0.91229000  0.19358000  1
  C  C105  1  0.53088000  0.19063000  0.74927000  1
  C  C106  1  0.24256000  0.70073000  0.58265000  1
  C  C107  1  0.16014000  0.73089000  0.80609000  1
  C  C108  1  0.50656000  0.39143000  0.77502000  1
  C  C109  1  0.86589000  0.20728000  0.94187000  1
  C  C110  1  0.38746000  0.37034000  0.76651000  1
  C  C111  1  0.57532000  0.24666000  0.62340000  1
  C  C112  1  0.01773000  0.79924000  0.07975000  1
  C  C113  1  0.17591000  0.74885000  0.84648000  1
  C  C114  1  0.07533000  0.74666000  0.87660000  1
  C  C115  1  0.50942000  0.96720000  0.03082000  1
  C  C116  1  0.13412000  0.79273000  0.05813000  1
  C  C117  1  0.98116000  0.56799000  0.56368000  1
  C  C118  1  0.10078000  0.21629000  0.98532000  1
  C  C119  1  0.86255000  0.82825000  0.71849000  1
  C  C120  1  0.51772000  0.29924000  0.42025000  1
  C  C121  1  0.95691000  0.28979000  0.20534000  1
  C  C122  1  0.54309000  0.21021000  0.70534000  1
  C  C123  1  0.47027000  0.58772000  0.69358000  1
  C  C124  1  0.57502000  0.32758000  0.81386000  1
  C  C125  1  0.14851000  0.93463000  0.19757000  1
  C  C126  1  0.51214000  0.01105000  0.04331000  1
  C  C127  1  0.83986000  0.26911000  0.19391000  1
  C  C128  1  0.98786000  0.48895000  0.54331000  1
  C  C129  1  0.01885000  0.43201000  0.43632000  1
  C  C130  1  0.99345000  0.10857000  0.27502000  1
  C  C131  1  0.42499000  0.67243000  0.18614000  1
  C  C132  1  0.59973000  0.36943000  0.79890000  1
  C  C133  1  0.35150000  0.56538000  0.69757000  1
  C  C134  1  0.90023000  0.79541000  0.05773000  1
  C  C135  1  0.61255000  0.62966000  0.23349000  1
  C  C136  1  0.91412000  0.93353000  0.20164000  1
  C  C137  1  0.25746000  0.79927000  0.08264000  1
  C  C138  1  0.96912000  0.30937000  0.24927000  1
  C  C139  1  0.33987000  0.76911000  0.30609000  1
  C  C140  1  0.77756000  0.80522000  0.08112000  1
  C  C141  1  0.45481000  0.56372000  0.23918000  1
  C  C142  1  0.95666000  0.72706000  0.86465000  1
  C  C143  1  0.89101000  0.23587000  0.08008000  1
  C  C144  1  0.59978000  0.70460000  0.55773000  1
  C  C145  1  0.27756000  0.30522000  0.41888000  1
  C  C146  1  0.51640000  0.27658000  0.50703000  1
  C  C147  1  0.63502000  0.28180000  0.48517000  1
  C  C148  1  0.71015000  0.59120000  0.69307000  1
  C  C149  1  0.51885000  0.93201000  0.06368000  1
  C  C150  1  0.08588000  0.06648000  0.79836000  1
  C  C151  1  0.40022000  0.29541000  0.44227000  1
  C  C152  1  0.93446000  0.76080000  0.67953000  1
  C  C153  1  0.15181000  0.97764000  0.21150000  1
  C  C154  1  0.05934000  0.29107000  0.17606000  1
  C  C155  1  0.03574000  0.99856000  0.22169000  1
  C  C156  1  0.36499000  0.71820000  0.51483000  1
  C  C157  1  0.52973000  0.41228000  0.30642000  1
  C  C158  1  0.74255000  0.20073000  0.91735000  1
  C  C159  1  0.01641000  0.77658000  0.99297000  1
  C  C160  1  0.76927000  0.41137000  0.31450000  1
  C  C161  1  0.58589000  0.56648000  0.70164000  1
  C  C162  1  0.86498000  0.21820000  0.98517000  1
  C  C163  1  0.75745000  0.29927000  0.41735000  1
  C  C164  1  0.89923000  0.78371000  0.01468000  1
  C  C165  1  0.45691000  0.78979000  0.29466000  1
  C  C166  1  0.21015000  0.09120000  0.80693000  1
  C  C167  1  0.48115000  0.06799000  0.93632000  1
  C  C168  1  0.88746000  0.87034000  0.73349000  1
  C  C169  1  0.00656000  0.89143000  0.72498000  1
  C  C170  1  0.99726000  0.45635000  0.51265000  1
  C  C171  1  0.39922000  0.28371000  0.48532000  1
  C  C172  1  0.90027000  0.13058000  0.29890000  1
  C  C173  1  0.49345000  0.60858000  0.22498000  1
  C  C174  1  0.04379000  0.19336000  0.30524000  1
  C  C175  1  0.95480000  0.06372000  0.26082000  1
  C  C176  1  0.92498000  0.17243000  0.31386000  1
  C  C177  1  0.26928000  0.91137000  0.18550000  1
  C  C178  1  0.48229000  0.70076000  0.57975000  1
  C  C179  1  0.63411000  0.29273000  0.44187000  1
  C  C180  1  0.65180000  0.47764000  0.28850000  1
  C  C181  1  0.44066000  0.20893000  0.67606000  1
  C  C182  1  0.06554000  0.23920000  0.32047000  1
  C  C183  1  0.60900000  0.26413000  0.58008000  1
  C  C184  1  0.54380000  0.69336000  0.19476000  1
  C  C185  1  0.09974000  0.86943000  0.70110000  1
  C  C186  1  0.03089000  0.69063000  0.75073000  1
  C  C187  1  0.97027000  0.08772000  0.80642000  1
  C  C188  1  0.48786000  0.98895000  0.95669000  1
  C  C189  1  0.23073000  0.58863000  0.68550000  1
  C  C190  1  0.67590000  0.24885000  0.65352000  1
  C  C191  1  0.11254000  0.12966000  0.26651000  1
  C  C192  1  0.53574000  0.49856000  0.27831000  1
  C  C193  1  0.28985000  0.40880000  0.30693000  1
  C  C194  1  0.46427000  0.50144000  0.72169000  1
  C  C195  1  0.54335000  0.77294000  0.36465000  1
  C  C196  1  0.04520000  0.93628000  0.73918000  1
  C  C197  1  0.13503000  0.78180000  0.01483000  1
  C  C198  1  0.36254000  0.32825000  0.78151000  1
  C  C199  1  0.54520000  0.43628000  0.76082000  1
  C  C200  1  0.55935000  0.79107000  0.32394000  1
  C  C201  1  0.73073000  0.08863000  0.81450000  1
  C  C202  1  0.00274000  0.54365000  0.48735000  1
  C  C203  1  0.45666000  0.22706000  0.63535000  1
  C  C204  1  0.10900000  0.76413000  0.91992000  1
  C  C205  1  0.41573000  0.47666000  0.28446000  1
  C  C206  1  0.49058000  0.03280000  0.96918000  1
  C  C207  1  0.84820000  0.02236000  0.78850000  1
  C  C208  1  0.64851000  0.43463000  0.30243000  1
  C  C209  1  0.39101000  0.73587000  0.41992000  1
  C  C210  1  0.13745000  0.17175000  0.28151000  1
  C  C211  1  0.58427000  0.52334000  0.71554000  1
  C  C212  1  0.48360000  0.72343000  0.49297000  1
  C  C213  1  0.78986000  0.90880000  0.19307000  1
  C  C214  1  0.46912000  0.80937000  0.25073000  1
  C  C215  1  0.60079000  0.71629000  0.51468000  1
  C  C216  1  0.01214000  0.51105000  0.45669000  1
  C  C217  1  0.50274000  0.04365000  0.01265000  1
  C  C218  1  0.04310000  0.71021000  0.79466000  1
  C  C219  1  0.99059000  0.53280000  0.53082000  1
  C  C220  1  0.92468000  0.25334000  0.12340000  1
  C  C221  1  0.91574000  0.97667000  0.21554000  1
  C  C222  1  0.34820000  0.52236000  0.71150000  1
  C  C223  1  0.49726000  0.95635000  0.98735000  1
  C  C224  1  0.82410000  0.25116000  0.15352000  1
  C  C225  1  0.66014000  0.23089000  0.69391000  1
  C  C226  1  0.00942000  0.46720000  0.46918000  1
  C  C227  1  0.98228000  0.20076000  0.92025000  1
  C  C228  1  0.40027000  0.63058000  0.20110000  1
  C  C229  1  0.09978000  0.20460000  0.94227000  1
  C  C230  1  0.42468000  0.75334000  0.37660000  1
  C  C231  1  0.56555000  0.73920000  0.17954000  1
  N  N232  1  0.95401000  0.95879000  0.76306000  1
  N  N233  1  0.50902000  0.26443000  0.55003000  1
  N  N234  1  0.99099000  0.23557000  0.05003000  1
  N  N235  1  0.45400000  0.45879000  0.73694000  1
  N  N236  1  0.00902000  0.76443000  0.94997000  1
  N  N237  1  0.04600000  0.04121000  0.23694000  1
  N  N238  1  0.49099000  0.73557000  0.44997000  1
  N  N239  1  0.54600000  0.54122000  0.26306000  1
  O  O240  1  0.62357000  0.06719000  0.81169000  1
  O  O241  1  0.51952000  0.24462000  0.84433000  1
  O  O242  1  0.84901000  0.04732000  0.26977000  1
  O  O243  1  0.71336000  0.69062000  0.62124000  1
  O  O244  1  0.74646000  0.12744000  0.82731000  1
  O  O245  1  0.47296000  0.15110000  0.85709000  1
  O  O246  1  0.21913000  0.77706000  0.92873000  1
  O  O247  1  0.21336000  0.19061000  0.87876000  1
  O  O248  1  0.86937000  0.30290000  0.27320000  1
  O  O249  1  0.98049000  0.25538000  0.34433000  1
  O  O250  1  0.87643000  0.43281000  0.31169000  1
  O  O251  1  0.02704000  0.34890000  0.35709000  1
  O  O252  1  0.78088000  0.22294000  0.07127000  1
  O  O253  1  0.71912000  0.27706000  0.57127000  1
  O  O254  1  0.37643000  0.93281000  0.18831000  1
  O  O255  1  0.25354000  0.87256000  0.17269000  1
  O  O256  1  0.82415000  0.69099000  0.55823000  1
  O  O257  1  0.75354000  0.37256000  0.32731000  1
  O  O258  1  0.14074000  0.69229000  0.56097000  1
  O  O259  1  0.85927000  0.30771000  0.43903000  1
  O  O260  1  0.92874000  0.67034000  0.74016000  1
  O  O261  1  0.24647000  0.62744000  0.67269000  1
  O  O262  1  0.75298000  0.20344000  0.87685000  1
  O  O263  1  0.16825000  0.25938000  0.30743000  1
  O  O264  1  0.15099000  0.95268000  0.73023000  1
  O  O265  1  0.36937000  0.80291000  0.22680000  1
  O  O266  1  0.64073000  0.19229000  0.93903000  1
  O  O267  1  0.12358000  0.56719000  0.68831000  1
  O  O268  1  0.02589000  0.44408000  0.39723000  1
  O  O269  1  0.28664000  0.30939000  0.37876000  1
  O  O270  1  0.29859000  0.36764000  0.30733000  1
  O  O271  1  0.34901000  0.54732000  0.23023000  1
  O  O272  1  0.01909000  0.39296000  0.45020000  1
  O  O273  1  0.79860000  0.86764000  0.19267000  1
  O  O274  1  0.63063000  0.19710000  0.77320000  1
  O  O275  1  0.13064000  0.69710000  0.72680000  1
  O  O276  1  0.25298000  0.70344000  0.62315000  1
  O  O277  1  0.48049000  0.75538000  0.15567000  1
  O  O278  1  0.32414000  0.19099000  0.94177000  1
  O  O279  1  0.17586000  0.30901000  0.44177000  1
  O  O280  1  0.24703000  0.79656000  0.12314000  1
  O  O281  1  0.66826000  0.75938000  0.19257000  1
  O  O282  1  0.74702000  0.29656000  0.37685000  1
  O  O283  1  0.31060000  0.06906000  0.81387000  1
  O  O284  1  0.42873000  0.17034000  0.75984000  1
  O  O285  1  0.81061000  0.56906000  0.68613000  1
  O  O286  1  0.83175000  0.74063000  0.69257000  1
  O  O287  1  0.98092000  0.60704000  0.54980000  1
  O  O288  1  0.18940000  0.43094000  0.31387000  1
  O  O289  1  0.07127000  0.32967000  0.25984000  1
  O  O290  1  0.52590000  0.94408000  0.10277000  1
  O  O291  1  0.78665000  0.80939000  0.12124000  1
  O  O292  1  0.65099000  0.45268000  0.76977000  1
  O  O293  1  0.33174000  0.24063000  0.80743000  1
  O  O294  1  0.01952000  0.74463000  0.65567000  1
  O  O295  1  0.67587000  0.80901000  0.05822000  1
  O  O296  1  0.51910000  0.89296000  0.04980000  1
  O  O297  1  0.97411000  0.55593000  0.60277000  1
  O  O298  1  0.48091000  0.10704000  0.95020000  1
  O  O299  1  0.28088000  0.72294000  0.42873000  1
  O  O300  1  0.20141000  0.13236000  0.80733000  1
  O  O301  1  0.52704000  0.84890000  0.14291000  1
  O  O302  1  0.47411000  0.05593000  0.89723000  1
  O  O303  1  0.97297000  0.65110000  0.64291000  1
  O  O304  1  0.68940000  0.93094000  0.18613000  1
  O  O305  1  0.35929000  0.80771000  0.06097000  1
  O  O306  1  0.57127000  0.82967000  0.24016000  1
  O  O307  1  0.70141000  0.63236000  0.69267000  1
