# generated using pymatgen
data_NdH2C5O6
_symmetry_space_group_name_H-M   'P 1'
_cell_length_a   9.13040000
_cell_length_b   9.13040000
_cell_length_c   14.70985167
_cell_angle_alpha   100.16872565
_cell_angle_beta   100.16872565
_cell_angle_gamma   115.53900000
_symmetry_Int_Tables_number   1
_chemical_formula_structural   NdH2C5O6
_chemical_formula_sum   'Nd4 H8 C20 O24'
_cell_volume   1044.07609993
_cell_formula_units_Z   4
loop_
 _symmetry_equiv_pos_site_id
 _symmetry_equiv_pos_as_xyz
  1  'x, y, z'
loop_
 _atom_site_type_symbol
 _atom_site_label
 _atom_site_symmetry_multiplicity
 _atom_site_fract_x
 _atom_site_fract_y
 _atom_site_fract_z
 _atom_site_occupancy
  Nd  Nd1  1  0.00940000  0.75940000  0.01880000  1.0
  Nd  Nd2  1  0.24060000  0.99060000  0.48120000  1.0
  Nd  Nd3  1  0.99060000  0.24060000  0.98120000  1.0
  Nd  Nd4  1  0.75940000  0.00940000  0.51880000  1.0
  H  H1  1  0.43800000  0.37600000  0.07400000  1.0
  H  H2  1  0.63600000  0.19800000  0.07400000  1.0
  H  H3  1  0.62400000  0.56200000  0.42600000  1.0
  H  H4  1  0.80200000  0.36400000  0.42600000  1.0
  H  H5  1  0.56200000  0.62400000  0.92600000  1.0
  H  H6  1  0.36400000  0.80200000  0.92600000  1.0
  H  H7  1  0.37600000  0.43800000  0.57400000  1.0
  H  H8  1  0.19800000  0.63600000  0.57400000  1.0
  C  C1  1  0.30628000  0.11928000  0.05836000  1.0
  C  C2  1  0.45909000  0.27869000  0.06498000  1.0
  C  C3  1  0.75208000  0.43908000  0.05836000  1.0
  C  C4  1  0.60589000  0.28629000  0.06498000  1.0
  C  C5  1  0.88072000  0.69372000  0.44164000  1.0
  C  C6  1  0.72131000  0.54091000  0.43502000  1.0
  C  C7  1  0.56092000  0.24792000  0.44164000  1.0
  C  C8  1  0.71371000  0.39411000  0.43502000  1.0
  C  C9  1  0.69372000  0.88072000  0.94164000  1.0
  C  C10  1  0.54091000  0.72131000  0.93502000  1.0
  C  C11  1  0.24792000  0.56092000  0.94164000  1.0
  C  C12  1  0.39411000  0.71371000  0.93502000  1.0
  C  C13  1  0.11928000  0.30628000  0.55836000  1.0
  C  C14  1  0.27869000  0.45909000  0.56498000  1.0
  C  C15  1  0.43908000  0.75208000  0.55836000  1.0
  C  C16  1  0.28629000  0.60589000  0.56498000  1.0
  C  C17  1  0.07470000  0.92530000  0.25000000  1.0
  C  C18  1  0.17530000  0.82470000  0.25000000  1.0
  C  C19  1  0.92530000  0.07470000  0.75000000  1.0
  C  C20  1  0.82470000  0.17530000  0.75000000  1.0
  O  O1  1  0.00911000  0.93233000  0.17004000  1.0
  O  O2  1  0.31544000  0.99338000  0.07602000  1.0
  O  O3  1  0.16689000  0.11693000  0.03262000  1.0
  O  O4  1  0.16093000  0.73771000  0.17004000  1.0
  O  O5  1  0.76058000  0.58264000  0.07602000  1.0
  O  O6  1  0.86573000  0.41569000  0.03262000  1.0
  O  O7  1  0.06767000  0.99089000  0.32996000  1.0
  O  O8  1  0.00662000  0.68456000  0.42398000  1.0
  O  O9  1  0.88307000  0.83311000  0.46738000  1.0
  O  O10  1  0.26229000  0.83907000  0.32996000  1.0
  O  O11  1  0.41736000  0.23942000  0.42398000  1.0
  O  O12  1  0.58431000  0.13427000  0.46738000  1.0
  O  O13  1  0.99089000  0.06767000  0.82996000  1.0
  O  O14  1  0.68456000  0.00662000  0.92398000  1.0
  O  O15  1  0.83311000  0.88307000  0.96738000  1.0
  O  O16  1  0.83907000  0.26229000  0.82996000  1.0
  O  O17  1  0.23942000  0.41736000  0.92398000  1.0
  O  O18  1  0.13427000  0.58431000  0.96738000  1.0
  O  O19  1  0.93233000  0.00911000  0.67004000  1.0
  O  O20  1  0.99338000  0.31544000  0.57602000  1.0
  O  O21  1  0.11693000  0.16689000  0.53262000  1.0
  O  O22  1  0.73771000  0.16093000  0.67004000  1.0
  O  O23  1  0.58264000  0.76058000  0.57602000  1.0
  O  O24  1  0.41569000  0.86573000  0.53262000  1.0
