# generated using pymatgen
data_H26C37N10
_symmetry_space_group_name_H-M   'P 1'
_cell_length_a   30.39822925
_cell_length_b   30.65060000
_cell_length_c   49.69590000
_cell_angle_alpha   89.93970000
_cell_angle_beta   90.00000000
_cell_angle_gamma   119.72800000
_symmetry_Int_Tables_number   1
_chemical_formula_structural   H26C37N10
_chemical_formula_sum   'H208 C296 N80'
_cell_volume   40208.87879783
_cell_formula_units_Z   8
loop_
 _symmetry_equiv_pos_site_id
 _symmetry_equiv_pos_as_xyz
  1  'x, y, z'
loop_
 _atom_site_type_symbol
 _atom_site_label
 _atom_site_symmetry_multiplicity
 _atom_site_fract_x
 _atom_site_fract_y
 _atom_site_fract_z
 _atom_site_occupancy
  H  26  1  0.60159000  0.19640400  0.99559300  1
  H  27  1  0.64946100  0.28071100  0.98015500  1
  H  28  1  0.49466900  0.16541400  0.93411400  1
  H  29  1  0.54305200  0.24907600  0.91817800  1
  H  30  1  0.55949100  0.34308400  0.91044700  1
  H  31  1  0.51390600  0.38100200  0.92806600  1
  H  32  1  0.58011500  0.39289100  0.00409700  1
  H  33  1  0.62676900  0.35574400  0.98641200  1
  H  34  1  0.69454700  0.42798400  0.95028500  1
  H  35  1  0.78042600  0.47232400  0.96408900  1
  H  36  1  0.79329600  0.34364000  0.94973600  1
  H  37  1  0.70690400  0.29874500  0.93626000  1
  H  38  1  0.63385500  0.25732100  0.89863800  1
  H  39  1  0.65652100  0.40472600  0.89914800  1
  H  40  1  0.66500400  0.40814100  0.85134300  1
  H  45  1  0.64200800  0.26083800  0.85121900  1
  H  71  1  0.38370300  0.79662800  0.49553600  1
  H  72  1  0.33590900  0.71237700  0.48012600  1
  H  73  1  0.49077900  0.82788900  0.43407000  1
  H  74  1  0.44247500  0.74427300  0.41816100  1
  H  75  1  0.42606800  0.65027000  0.41045000  1
  H  76  1  0.47167700  0.61234500  0.42807900  1
  H  77  1  0.40544500  0.60029400  0.50413400  1
  H  78  1  0.35877100  0.63744600  0.48644200  1
  H  79  1  0.29098600  0.56523400  0.45043100  1
  H  80  1  0.20507500  0.52084000  0.46422900  1
  H  81  1  0.19214100  0.64947000  0.44965500  1
  H  82  1  0.27856800  0.69442400  0.43618700  1
  H  83  1  0.35178500  0.73599100  0.39855000  1
  H  84  1  0.32897200  0.58852900  0.39926000  1
  H  85  1  0.32046300  0.58510000  0.35146700  1
  H  90  1  0.34361200  0.73245900  0.35113300  1
  H  116  1  0.36785800  0.78217400  0.99012200  1
  H  117  1  0.33305400  0.69948000  0.00791400  1
  H  118  1  0.35179700  0.83430100  0.06587000  1
  H  119  1  0.31654900  0.75210100  0.08351400  1
  H  120  1  0.21912900  0.67312200  0.07050700  1
  H  121  1  0.13657100  0.63393400  0.05114500  1
  H  122  1  0.18076300  0.55920400  0.99554100  1
  H  123  1  0.26306500  0.59902700  0.01419400  1
  H  124  1  0.27627700  0.56374300  0.06295100  1
  H  125  1  0.31945600  0.52104700  0.04892500  1
  H  126  1  0.44622700  0.65932500  0.02717500  1
  H  127  1  0.40367300  0.70219700  0.04179400  1
  H  128  1  0.37980300  0.71420600  0.09484300  1
  H  129  1  0.22654400  0.59972300  0.09603400  1
  H  130  1  0.22831100  0.59915000  0.14372600  1
  H  135  1  0.38167200  0.71276300  0.14257500  1
  H  161  1  0.61750900  0.21084300  0.49014700  1
  H  162  1  0.65230500  0.29346500  0.50792700  1
  H  163  1  0.63326800  0.15835900  0.56591600  1
  H  164  1  0.66851800  0.24049500  0.58355100  1
  H  165  1  0.76605900  0.31948000  0.57046300  1
  H  166  1  0.84866000  0.35875500  0.55109600  1
  H  167  1  0.80463600  0.43384300  0.49554000  1
  H  168  1  0.72229300  0.39394100  0.51419100  1
  H  169  1  0.70901600  0.42898500  0.56293600  1
  H  170  1  0.66588600  0.47177300  0.54891400  1
  H  171  1  0.53912400  0.33361400  0.52717600  1
  H  172  1  0.58162100  0.29065000  0.54179300  1
  H  173  1  0.60544700  0.27852300  0.59490400  1
  H  174  1  0.75875500  0.39289800  0.59595700  1
  H  175  1  0.75699700  0.39342700  0.64364900  1
  H  180  1  0.60359100  0.27993100  0.64263600  1
  H  188  1  0.73503400  0.26832200  0.72344800  1
  H  189  1  0.70914600  0.27687000  0.69615200  1
  H  190  1  0.72180100  0.29082000  0.76721400  1
  H  192  1  0.69782000  0.30514000  0.81159800  1
  H  194  1  0.61309500  0.30527500  0.68882700  1
  H  202  1  0.25031600  0.72455800  0.22329800  1
  H  203  1  0.27604300  0.71577100  0.19601400  1
  H  204  1  0.26368900  0.70230200  0.26712600  1
  H  206  1  0.28782700  0.68823100  0.31154900  1
  H  208  1  0.37217700  0.68754600  0.18880200  1
  H  216  1  0.34002400  0.91455200  0.95367400  1
  H  217  1  0.33333333  0.88019533  0.98063400  1
  H  218  1  0.40736300  0.99851900  0.94861100  1
  H  220  1  0.48055600  0.08349100  0.94446700  1
  H  222  1  0.39707800  0.91211100  0.04318400  1
  H  230  1  0.46376200  0.57708200  0.94996900  1
  H  231  1  0.42609200  0.57606500  0.97422500  1
  H  232  1  0.50071000  0.52460800  0.94998300  1
  H  234  1  0.53213000  0.46554500  0.94988600  1
  H  236  1  0.36640200  0.49085800  0.02572000  1
  H  244  1  0.06280900  0.52355500  0.93536600  1
  H  245  1  0.09759200  0.56291700  0.95932000  1
  H  246  1  0.97350100  0.47163700  0.93873000  1
  H  248  1  0.88099100  0.41216500  0.94772200  1
  H  250  1  0.06371100  0.59765400  0.02114600  1
  H  258  1  0.64545800  0.07865500  0.45372500  1
  H  259  1  0.65207500  0.11290400  0.48068700  1
  H  260  1  0.57811900  0.99473000  0.44862800  1
  H  262  1  0.50494200  0.90978700  0.44444700  1
  H  264  1  0.58804800  0.08063500  0.54321200  1
  H  272  1  0.52176100  0.41623000  0.44997300  1
  H  273  1  0.55948100  0.41721900  0.47419600  1
  H  274  1  0.48464900  0.46854700  0.45005700  1
  H  276  1  0.45327800  0.52765400  0.44996300  1
  H  278  1  0.61903200  0.50208900  0.52568900  1
  H  286  1  0.92264600  0.46966300  0.43533000  1
  H  287  1  0.88777300  0.43030400  0.45930900  1
  H  288  1  0.01201000  0.52135300  0.43863600  1
  H  290  1  0.10448100  0.58090500  0.44764800  1
  H  292  1  0.92157900  0.39516200  0.52108900  1
  H  318  1  0.60159000  0.58791300  0.81449200  1
  H  319  1  0.64946100  0.67222050  0.79905400  1
  H  320  1  0.49466900  0.55692350  0.75301300  1
  H  321  1  0.54305200  0.64058550  0.73707700  1
  H  322  1  0.55949100  0.73459300  0.72934600  1
  H  323  1  0.51390600  0.77251100  0.74696500  1
  H  324  1  0.58011500  0.78440000  0.82299600  1
  H  325  1  0.62676900  0.74725300  0.80531100  1
  H  326  1  0.69454700  0.81949300  0.76918400  1
  H  327  1  0.78042600  0.86383350  0.78298800  1
  H  328  1  0.79329600  0.73514900  0.76863500  1
  H  329  1  0.70690400  0.69025400  0.75515900  1
  H  330  1  0.63385500  0.64883050  0.71753700  1
  H  331  1  0.65652100  0.79623500  0.71804700  1
  H  332  1  0.66500400  0.79965000  0.67024200  1
  H  337  1  0.64200800  0.65234750  0.67011800  1
  H  363  1  0.38370300  0.18813700  0.31443500  1
  H  364  1  0.33590900  0.10388600  0.29902500  1
  H  365  1  0.49077900  0.21939800  0.25296900  1
  H  366  1  0.44247500  0.13578200  0.23706000  1
  H  367  1  0.42606800  0.04177900  0.22934900  1
  H  368  1  0.47167700  0.00385400  0.24697800  1
  H  369  1  0.40544500  0.99180300  0.32303300  1
  H  370  1  0.35877100  0.02895500  0.30534100  1
  H  371  1  0.29098600  0.95674300  0.26933000  1
  H  372  1  0.20507500  0.91234900  0.28312800  1
  H  373  1  0.19214100  0.04097900  0.26855400  1
  H  374  1  0.27856800  0.08593300  0.25508600  1
  H  375  1  0.35178500  0.12750000  0.21744900  1
  H  376  1  0.32897200  0.98003800  0.21815900  1
  H  377  1  0.32046300  0.97660900  0.17036600  1
  H  382  1  0.34361200  0.12396800  0.17003200  1
  H  408  1  0.36785800  0.17368300  0.80902100  1
  H  409  1  0.33305400  0.09098900  0.82681300  1
  H  410  1  0.35179700  0.22581000  0.88476900  1
  H  411  1  0.31654900  0.14361000  0.90241250  1
  H  412  1  0.21912900  0.06463100  0.88940600  1
  H  413  1  0.13657100  0.02544300  0.87004400  1
  H  414  1  0.18076300  0.95071300  0.81444000  1
  H  415  1  0.26306500  0.99053600  0.83309300  1
  H  416  1  0.27627700  0.95525200  0.88185000  1
  H  417  1  0.31945600  0.91255600  0.86782400  1
  H  418  1  0.44622700  0.05083400  0.84607400  1
  H  419  1  0.40367300  0.09370600  0.86069300  1
  H  420  1  0.37980300  0.10571500  0.91374150  1
  H  421  1  0.22654400  0.99123200  0.91493250  1
  H  422  1  0.22831100  0.99065900  0.96262450  1
  H  427  1  0.38167200  0.10427200  0.96147350  1
  H  453  1  0.61750900  0.60235200  0.30904600  1
  H  454  1  0.65230500  0.68497450  0.32682600  1
  H  455  1  0.63326800  0.54986800  0.38481500  1
  H  456  1  0.66851800  0.63200400  0.40245000  1
  H  457  1  0.76605900  0.71098900  0.38936200  1
  H  458  1  0.84866000  0.75026400  0.36999500  1
  H  459  1  0.80463600  0.82535250  0.31443900  1
  H  460  1  0.72229300  0.78545050  0.33309000  1
  H  461  1  0.70901600  0.82049400  0.38183500  1
  H  462  1  0.66588600  0.86328200  0.36781300  1
  H  463  1  0.53912400  0.72512300  0.34607500  1
  H  464  1  0.58162100  0.68215900  0.36069200  1
  H  465  1  0.60544700  0.67003250  0.41380300  1
  H  466  1  0.75875500  0.78440750  0.41485600  1
  H  467  1  0.75699700  0.78493650  0.46254800  1
  H  472  1  0.60359100  0.67144050  0.46153500  1
  H  480  1  0.73503400  0.65983100  0.54234700  1
  H  481  1  0.70914600  0.66837900  0.51505100  1
  H  482  1  0.72180100  0.68232900  0.58611300  1
  H  484  1  0.69782000  0.69664900  0.63049700  1
  H  486  1  0.61309500  0.69678450  0.50772600  1
  H  494  1  0.25031600  0.11606700  0.04219700  1
  H  495  1  0.27604300  0.10728000  0.01491300  1
  H  496  1  0.26368900  0.09381100  0.08602500  1
  H  498  1  0.28782700  0.07974000  0.13044800  1
  H  500  1  0.37217700  0.07905500  0.00770100  1
  H  508  1  0.34002400  0.30606100  0.77257300  1
  H  509  1  0.33333333  0.27170433  0.79953300  1
  H  510  1  0.40736300  0.39002800  0.76751000  1
  H  512  1  0.48055600  0.47500000  0.76336600  1
  H  514  1  0.39707800  0.30362000  0.86208300  1
  H  522  1  0.46376200  0.96859100  0.76886800  1
  H  523  1  0.42609200  0.96757400  0.79312400  1
  H  524  1  0.50071000  0.91611700  0.76888200  1
  H  526  1  0.53213000  0.85705400  0.76878500  1
  H  528  1  0.36640200  0.88236700  0.84461900  1
  H  536  1  0.06280900  0.91506400  0.75426500  1
  H  537  1  0.09759200  0.95442600  0.77821900  1
  H  538  1  0.97350100  0.86314600  0.75762900  1
  H  540  1  0.88099100  0.80367400  0.76662100  1
  H  542  1  0.06371100  0.98916300  0.84004500  1
  H  550  1  0.64545800  0.47016400  0.27262400  1
  H  551  1  0.65207500  0.50441300  0.29958600  1
  H  552  1  0.57811900  0.38623900  0.26752700  1
  H  554  1  0.50494200  0.30129600  0.26334600  1
  H  556  1  0.58804800  0.47214400  0.36211100  1
  H  564  1  0.52176100  0.80773900  0.26887200  1
  H  565  1  0.55948100  0.80872800  0.29309500  1
  H  566  1  0.48464900  0.86005600  0.26895600  1
  H  568  1  0.45327800  0.91916300  0.26886200  1
  H  570  1  0.61903200  0.89359800  0.34458800  1
  H  578  1  0.92264600  0.86117200  0.25422900  1
  H  579  1  0.88777300  0.82181300  0.27820800  1
  H  580  1  0.01201000  0.91286200  0.25753500  1
  H  582  1  0.10448100  0.97241400  0.26654700  1
  H  584  1  0.92157900  0.78667100  0.33998800  1
  C  1  1  0.65418000  0.33484300  0.84664600  1
  C  2  1  0.65786200  0.37593600  0.86120000  1
  C  3  1  0.65256500  0.37360400  0.88942500  1
  C  4  1  0.64005100  0.32916100  0.90423600  1
  C  5  1  0.63910500  0.28919800  0.88923700  1
  C  6  1  0.64500000  0.29144600  0.86111200  1
  C  7  1  0.63395500  0.32722400  0.93494000  1
  C  8  1  0.68949800  0.35682600  0.94381200  1
  C  9  1  0.72133200  0.33511100  0.94244500  1
  C  10  1  0.77264300  0.36169100  0.95014200  1
  C  11  1  0.79510700  0.41224700  0.95860600  1
  C  12  1  0.76501500  0.43536800  0.95869100  1
  C  13  1  0.71384900  0.40861900  0.95082500  1
  C  14  1  0.60194400  0.34929300  0.94580800  1
  C  15  1  0.60403400  0.27350000  0.94596600  1
  C  16  1  0.61807200  0.25668300  0.96940700  1
  C  17  1  0.58939900  0.20694400  0.97889700  1
  C  18  1  0.54474000  0.17185800  0.96564700  1
  C  19  1  0.52808000  0.18890000  0.94354400  1
  C  20  1  0.55675500  0.23864100  0.93425700  1
  C  21  1  0.56605300  0.35482500  0.92998800  1
  C  22  1  0.53843000  0.37668000  0.94040100  1
  C  23  1  0.54450600  0.39268800  0.96745400  1
  C  24  1  0.57598300  0.38294500  0.98420900  1
  C  25  1  0.60361700  0.36123100  0.97360900  1
  C  46  1  0.33132000  0.65840700  0.34666800  1
  C  47  1  0.32761800  0.61731000  0.36127900  1
  C  48  1  0.33291300  0.61964700  0.38950100  1
  C  49  1  0.34548200  0.66410900  0.40424800  1
  C  50  1  0.34649200  0.70409700  0.38919300  1
  C  51  1  0.34057600  0.70183300  0.36107200  1
  C  52  1  0.35155300  0.66602200  0.43495100  1
  C  53  1  0.29600900  0.63637500  0.44385500  1
  C  54  1  0.26413700  0.65804800  0.44240300  1
  C  55  1  0.21281000  0.63143800  0.45010300  1
  C  56  1  0.19035900  0.58088800  0.45863700  1
  C  57  1  0.22047700  0.55779500  0.45878000  1
  C  58  1  0.27166400  0.58458000  0.45092200  1
  C  59  1  0.38357500  0.64394600  0.44581900  1
  C  60  1  0.38142300  0.71972100  0.44594200  1
  C  61  1  0.36730900  0.73645400  0.46936700  1
  C  62  1  0.39594500  0.78615900  0.47884600  1
  C  63  1  0.44061000  0.82131500  0.46558600  1
  C  64  1  0.45735400  0.80435700  0.44350300  1
  C  65  1  0.42871800  0.75464500  0.43422700  1
  C  66  1  0.41950800  0.63849300  0.43000100  1
  C  67  1  0.44714100  0.61663300  0.44041800  1
  C  68  1  0.44105000  0.60055900  0.46747900  1
  C  69  1  0.40955600  0.61025100  0.48423700  1
  C  70  1  0.38191900  0.63197900  0.47363300  1
  C  91  1  0.30507500  0.65565500  0.14787700  1
  C  92  1  0.26055900  0.62363800  0.13356800  1
  C  93  1  0.25943200  0.62491900  0.10526000  1
  C  94  1  0.30198200  0.65974100  0.08992500  1
  C  95  1  0.34729800  0.68957000  0.10471100  1
  C  96  1  0.34876300  0.68842400  0.13299300  1
  C  97  1  0.30232200  0.66295000  0.05911700  1
  C  98  1  0.33333333  0.63749733  0.05191600  1
  C  99  1  0.38449700  0.66392200  0.04300300  1
  C  100  1  0.41036300  0.63873800  0.03484000  1
  C  101  1  0.38684400  0.58596300  0.03611500  1
  C  102  1  0.33778800  0.55931300  0.04738000  1
  C  103  1  0.31226900  0.58479600  0.05560000  1
  C  104  1  0.24952700  0.63741200  0.04614000  1
  C  105  1  0.32463300  0.71680400  0.04837200  1
  C  106  1  0.33758000  0.72753600  0.02069600  1
  C  107  1  0.35819200  0.77640100  0.01007500  1
  C  108  1  0.36533800  0.81687300  0.02647300  1
  C  109  1  0.34940000  0.80650700  0.05357200  1
  C  110  1  0.32894000  0.75754000  0.06405900  1
  C  111  1  0.21167400  0.64865600  0.05492800  1
  C  112  1  0.16285000  0.62577900  0.04346200  1
  C  113  1  0.15025200  0.59166600  0.02189300  1
  C  114  1  0.18813800  0.58252100  0.01171700  1
  C  115  1  0.23680300  0.60570500  0.02319300  1
  C  136  1  0.68021800  0.33696300  0.64787000  1
  C  137  1  0.72474000  0.36895500  0.63352100  1
  C  138  1  0.72586700  0.36770100  0.60521300  1
  C  139  1  0.68328500  0.33294000  0.58991800  1
  C  140  1  0.63797200  0.30310400  0.60474200  1
  C  141  1  0.63651000  0.30424300  0.63302400  1
  C  142  1  0.68293300  0.32978900  0.55911200  1
  C  143  1  0.65194900  0.35529200  0.55191900  1
  C  144  1  0.60080800  0.32892100  0.54300000  1
  C  145  1  0.57497700  0.35415700  0.53483500  1
  C  146  1  0.59851800  0.40692700  0.53610000  1
  C  147  1  0.64757000  0.43351700  0.54734100  1
  C  148  1  0.67303300  0.40798100  0.55559500  1
  C  149  1  0.73573000  0.35532500  0.54610300  1
  C  150  1  0.66059000  0.27595900  0.54839300  1
  C  151  1  0.64772000  0.26534800  0.52071500  1
  C  152  1  0.62710900  0.21652300  0.51010000  1
  C  153  1  0.61988400  0.17597300  0.52650600  1
  C  154  1  0.63574000  0.18621800  0.55360900  1
  C  155  1  0.65618400  0.23514200  0.56409500  1
  C  156  1  0.77354400  0.34400400  0.55487700  1
  C  157  1  0.82240300  0.36695300  0.54341900  1
  C  158  1  0.83506100  0.40119800  0.52186400  1
  C  159  1  0.79720800  0.41041000  0.51169800  1
  C  160  1  0.74852400  0.38719700  0.52317800  1
  C  181  1  0.67622100  0.32331700  0.77599400  1
  C  182  1  0.70041400  0.30478600  0.75895000  1
  C  183  1  0.69356200  0.30295900  0.73070400  1
  C  184  1  0.66267600  0.32182500  0.72015600  1
  C  191  1  0.67918100  0.32124500  0.80379300  1
  C  193  1  0.64957700  0.32016600  0.69337700  1
  C  195  1  0.30927400  0.66982900  0.27598600  1
  C  196  1  0.28502700  0.68826800  0.25889800  1
  C  197  1  0.29177200  0.68992300  0.23064500  1
  C  198  1  0.32256200  0.67092900  0.22013900  1
  C  205  1  0.30641900  0.67206300  0.30378100  1
  C  207  1  0.33568100  0.67255000  0.19336600  1
  C  209  1  0.46441600  0.03798100  0.97760300  1
  C  210  1  0.42152100  0.99561300  0.96682400  1
  C  211  1  0.39665200  0.94977200  0.98128700  1
  C  212  1  0.41754900  0.94757200  0.00657400  1
  C  219  1  0.48825900  0.08338300  0.96391300  1
  C  221  1  0.39834200  0.90636300  0.02359900  1
  C  223  1  0.48948000  0.47154300  0.98026700  1
  C  224  1  0.48424100  0.51053600  0.96829800  1
  C  225  1  0.45468500  0.52890200  0.98066900  1
  C  226  1  0.43200200  0.50773000  0.00595000  1
  C  233  1  0.51601400  0.45140100  0.96762000  1
  C  235  1  0.39981200  0.51907300  0.02008200  1
  C  237  1  0.92963000  0.47081600  0.97189100  1
  C  238  1  0.97504900  0.48547900  0.95768100  1
  C  239  1  0.02247700  0.52056400  0.96886300  1
  C  240  1  0.02264400  0.53871300  0.99529500  1
  C  247  1  0.88292700  0.43710400  0.96115200  1
  C  249  1  0.06514900  0.57159000  0.00990800  1
  C  251  1  0.52095000  0.95512000  0.47759300  1
  C  252  1  0.56388900  0.99754100  0.46683300  1
  C  253  1  0.58870500  0.04330900  0.48130700  1
  C  254  1  0.56771500  0.04538000  0.50658300  1
  C  261  1  0.49715400  0.90979200  0.46388900  1
  C  263  1  0.58689200  0.08649400  0.52362500  1
  C  265  1  0.49599200  0.52160800  0.48029900  1
  C  266  1  0.50118700  0.48262100  0.46834000  1
  C  267  1  0.53073200  0.46420000  0.48069500  1
  C  268  1  0.55345800  0.48533000  0.50594700  1
  C  275  1  0.46945400  0.54178600  0.46766800  1
  C  277  1  0.58561500  0.47390600  0.52006900  1
  C  279  1  0.05578400  0.52222200  0.47185600  1
  C  280  1  0.01040400  0.50753900  0.45761900  1
  C  281  1  0.96295300  0.47241000  0.46880300  1
  C  282  1  0.96271600  0.45425100  0.49526400  1
  C  289  1  0.10251300  0.55595000  0.46110600  1
  C  291  1  0.92017800  0.42130700  0.50987100  1
  C  293  1  0.65418000  0.72635250  0.66554500  1
  C  294  1  0.65786200  0.76744500  0.68009900  1
  C  295  1  0.65256500  0.76511300  0.70832400  1
  C  296  1  0.64005100  0.72067050  0.72313500  1
  C  297  1  0.63910500  0.68070750  0.70813600  1
  C  298  1  0.64500000  0.68295550  0.68001100  1
  C  299  1  0.63395500  0.71873350  0.75383900  1
  C  300  1  0.68949800  0.74833550  0.76271100  1
  C  301  1  0.72133200  0.72662046  0.76134400  1
  C  302  1  0.77264300  0.75320000  0.76904100  1
  C  303  1  0.79510700  0.80375646  0.77750500  1
  C  304  1  0.76501500  0.82687750  0.77759000  1
  C  305  1  0.71384900  0.80012850  0.76972400  1
  C  306  1  0.60194400  0.74080200  0.76470700  1
  C  307  1  0.60403400  0.66500950  0.76486500  1
  C  308  1  0.61807200  0.64819250  0.78830600  1
  C  309  1  0.58939900  0.59845346  0.79779600  1
  C  310  1  0.54474000  0.56336750  0.78454600  1
  C  311  1  0.52808000  0.58040950  0.76244300  1
  C  312  1  0.55675500  0.63015050  0.75315600  1
  C  313  1  0.56605300  0.74633400  0.74888700  1
  C  314  1  0.53843000  0.76818900  0.75930000  1
  C  315  1  0.54450600  0.78419700  0.78635300  1
  C  316  1  0.57598300  0.77445400  0.80310800  1
  C  317  1  0.60361700  0.75274000  0.79250800  1
  C  338  1  0.33132000  0.04991600  0.16556700  1
  C  339  1  0.32761800  0.00881900  0.18017800  1
  C  340  1  0.33291300  0.01115600  0.20840000  1
  C  341  1  0.34548200  0.05561800  0.22314700  1
  C  342  1  0.34649200  0.09560600  0.20809200  1
  C  343  1  0.34057600  0.09334200  0.17997100  1
  C  344  1  0.35155300  0.05753100  0.25385000  1
  C  345  1  0.29600900  0.02788400  0.26275400  1
  C  346  1  0.26413700  0.04955700  0.26130200  1
  C  347  1  0.21281000  0.02294700  0.26900200  1
  C  348  1  0.19035900  0.97239700  0.27753600  1
  C  349  1  0.22047700  0.94930400  0.27767900  1
  C  350  1  0.27166400  0.97608900  0.26982100  1
  C  351  1  0.38357500  0.03545500  0.26471800  1
  C  352  1  0.38142300  0.11123000  0.26484100  1
  C  353  1  0.36730900  0.12796300  0.28826600  1
  C  354  1  0.39594500  0.17766800  0.29774500  1
  C  355  1  0.44061000  0.21282400  0.28448500  1
  C  356  1  0.45735400  0.19586600  0.26240200  1
  C  357  1  0.42871800  0.14615400  0.25312600  1
  C  358  1  0.41950800  0.03000200  0.24890000  1
  C  359  1  0.44714100  0.00814200  0.25931700  1
  C  360  1  0.44105000  0.99206800  0.28637800  1
  C  361  1  0.40955600  0.00176000  0.30313600  1
  C  362  1  0.38191900  0.02348800  0.29253200  1
  C  383  1  0.30507500  0.04716400  0.96677550  1
  C  384  1  0.26055900  0.01514700  0.95246650  1
  C  385  1  0.25943200  0.01642800  0.92415850  1
  C  386  1  0.30198200  0.05125000  0.90882350  1
  C  387  1  0.34729800  0.08107900  0.92360950  1
  C  388  1  0.34876300  0.07993300  0.95189150  1
  C  389  1  0.30232200  0.05445900  0.87801600  1
  C  390  1  0.33333333  0.02900633  0.87081500  1
  C  391  1  0.38449700  0.05543100  0.86190200  1
  C  392  1  0.41036300  0.03024700  0.85373900  1
  C  393  1  0.38684400  0.97747200  0.85501400  1
  C  394  1  0.33778800  0.95082200  0.86627900  1
  C  395  1  0.31226900  0.97630500  0.87449900  1
  C  396  1  0.24952700  0.02892100  0.86503900  1
  C  397  1  0.32463300  0.10831300  0.86727100  1
  C  398  1  0.33758000  0.11904500  0.83959500  1
  C  399  1  0.35819200  0.16791000  0.82897400  1
  C  400  1  0.36533800  0.20838200  0.84537200  1
  C  401  1  0.34940000  0.19801600  0.87247100  1
  C  402  1  0.32894000  0.14904900  0.88295800  1
  C  403  1  0.21167400  0.04016500  0.87382700  1
  C  404  1  0.16285000  0.01728800  0.86236100  1
  C  405  1  0.15025200  0.98317500  0.84079200  1
  C  406  1  0.18813800  0.97403000  0.83061600  1
  C  407  1  0.23680300  0.99721400  0.84209200  1
  C  428  1  0.68021800  0.72847250  0.46676900  1
  C  429  1  0.72474000  0.76046450  0.45242000  1
  C  430  1  0.72586700  0.75921050  0.42411200  1
  C  431  1  0.68328500  0.72444950  0.40881700  1
  C  432  1  0.63797200  0.69461350  0.42364100  1
  C  433  1  0.63651000  0.69575250  0.45192300  1
  C  434  1  0.68293300  0.72129850  0.37801100  1
  C  435  1  0.65194900  0.74680150  0.37081800  1
  C  436  1  0.60080800  0.72043000  0.36189900  1
  C  437  1  0.57497700  0.74566600  0.35373400  1
  C  438  1  0.59851800  0.79843600  0.35499900  1
  C  439  1  0.64757000  0.82502600  0.36624000  1
  C  440  1  0.67303300  0.79949000  0.37449400  1
  C  441  1  0.73573000  0.74683450  0.36500200  1
  C  442  1  0.66059000  0.66746846  0.36729200  1
  C  443  1  0.64772000  0.65685746  0.33961400  1
  C  444  1  0.62710900  0.60803200  0.32899900  1
  C  445  1  0.61988400  0.56748200  0.34540500  1
  C  446  1  0.63574000  0.57772700  0.37250800  1
  C  447  1  0.65618400  0.62665100  0.38299400  1
  C  448  1  0.77354400  0.73551300  0.37377600  1
  C  449  1  0.82240300  0.75846200  0.36231800  1
  C  450  1  0.83506100  0.79270700  0.34076300  1
  C  451  1  0.79720800  0.80191946  0.33059700  1
  C  452  1  0.74852400  0.77870650  0.34207700  1
  C  473  1  0.67622100  0.71482650  0.59489300  1
  C  474  1  0.70041400  0.69629500  0.57784900  1
  C  475  1  0.69356200  0.69446847  0.54960300  1
  C  476  1  0.66267600  0.71333450  0.53905500  1
  C  483  1  0.67918100  0.71275450  0.62269200  1
  C  485  1  0.64957700  0.71167550  0.51227600  1
  C  487  1  0.30927400  0.06133800  0.09488500  1
  C  488  1  0.28502700  0.07977700  0.07779700  1
  C  489  1  0.29177200  0.08143200  0.04954400  1
  C  490  1  0.32256200  0.06243800  0.03903800  1
  C  497  1  0.30641900  0.06357200  0.12268000  1
  C  499  1  0.33568100  0.06405900  0.01226500  1
  C  501  1  0.46441600  0.42949000  0.79650200  1
  C  502  1  0.42152100  0.38712200  0.78572300  1
  C  503  1  0.39665200  0.34128100  0.80018600  1
  C  504  1  0.41754900  0.33908100  0.82547300  1
  C  511  1  0.48825900  0.47489200  0.78281200  1
  C  513  1  0.39834200  0.29787200  0.84249800  1
  C  515  1  0.48948000  0.86305200  0.79916600  1
  C  516  1  0.48424100  0.90204500  0.78719700  1
  C  517  1  0.45468500  0.92041100  0.79956800  1
  C  518  1  0.43200200  0.89923900  0.82484900  1
  C  525  1  0.51601400  0.84291000  0.78651900  1
  C  527  1  0.39981200  0.91058200  0.83898100  1
  C  529  1  0.92963000  0.86232500  0.79079000  1
  C  530  1  0.97504900  0.87698800  0.77658000  1
  C  531  1  0.02247700  0.91207300  0.78776200  1
  C  532  1  0.02264400  0.93022200  0.81419400  1
  C  539  1  0.88292700  0.82861300  0.78005100  1
  C  541  1  0.06514900  0.96309900  0.82880700  1
  C  543  1  0.52095000  0.34662900  0.29649200  1
  C  544  1  0.56388900  0.38905000  0.28573200  1
  C  545  1  0.58870500  0.43481800  0.30020600  1
  C  546  1  0.56771500  0.43688900  0.32548200  1
  C  553  1  0.49715400  0.30130100  0.28278800  1
  C  555  1  0.58689200  0.47800300  0.34252400  1
  C  557  1  0.49599200  0.91311700  0.29919800  1
  C  558  1  0.50118700  0.87413000  0.28723900  1
  C  559  1  0.53073200  0.85570900  0.29959400  1
  C  560  1  0.55345800  0.87683900  0.32484600  1
  C  567  1  0.46945400  0.93329500  0.28656700  1
  C  569  1  0.58561500  0.86541500  0.33896800  1
  C  571  1  0.05578400  0.91373100  0.29075500  1
  C  572  1  0.01040400  0.89904800  0.27651800  1
  C  573  1  0.96295300  0.86391900  0.28770200  1
  C  574  1  0.96271600  0.84576000  0.31416300  1
  C  581  1  0.10251300  0.94745900  0.28000500  1
  C  583  1  0.92017800  0.81281600  0.32877000  1
  N  41  1  0.51941100  0.12510300  0.97541200  1
  N  42  1  0.52065000  0.41530600  0.97788100  1
  N  43  1  0.65704600  0.33726600  0.81983800  1
  N  44  1  0.84293200  0.43951100  0.96687700  1
  N  86  1  0.46592400  0.86801400  0.47536500  1
  N  87  1  0.46489900  0.57791300  0.47790700  1
  N  88  1  0.32845300  0.65595700  0.31986500  1
  N  89  1  0.14250800  0.55358200  0.46689400  1
  N  131  1  0.38442500  0.86189600  0.01484400  1
  N  132  1  0.10517200  0.56742300  0.01001900  1
  N  133  1  0.30209400  0.65598500  0.17463000  1
  N  134  1  0.41136100  0.56477300  0.02479500  1
  N  176  1  0.60084000  0.13100800  0.51487500  1
  N  177  1  0.88016900  0.42549900  0.50999400  1
  N  178  1  0.68317200  0.33664800  0.67462100  1
  N  179  1  0.57403100  0.42818100  0.52478800  1
  N  185  1  0.64065400  0.33896100  0.73789400  1
  N  186  1  0.64687500  0.33968200  0.76398000  1
  N  187  1  0.71513800  0.28185100  0.71535500  1
  N  199  1  0.34468700  0.65394500  0.23792500  1
  N  200  1  0.33857400  0.65339200  0.26401400  1
  N  201  1  0.27015800  0.71095500  0.21523700  1
  N  213  1  0.45890500  0.99008500  0.01551800  1
  N  214  1  0.48088700  0.03237900  0.00208200  1
  N  215  1  0.35373300  0.91104300  0.97072900  1
  N  227  1  0.43880400  0.47027800  0.01611600  1
  N  228  1  0.46567100  0.45331300  0.00418300  1
  N  229  1  0.44826300  0.56427600  0.96746500  1
  N  241  1  0.97712600  0.52255500  0.00757600  1
  N  242  1  0.93358600  0.49097500  0.99670200  1
  N  243  1  0.06484900  0.53590500  0.95362400  1
  N  255  1  0.52632800  0.00281600  0.51551300  1
  N  256  1  0.50439200  0.96059400  0.50206500  1
  N  257  1  0.63168300  0.08207900  0.47077300  1
  N  269  1  0.54670500  0.52278500  0.51610300  1
  N  270  1  0.51984500  0.53979600  0.50418400  1
  N  271  1  0.53708200  0.42880400  0.46751300  1
  N  283  1  0.00819400  0.47043900  0.50757100  1
  N  284  1  0.05176000  0.50205400  0.49669500  1
  N  285  1  0.92063900  0.45703600  0.45353600  1
  N  333  1  0.51941100  0.51661200  0.79431100  1
  N  334  1  0.52065000  0.80681500  0.79678000  1
  N  335  1  0.65704600  0.72877550  0.63873700  1
  N  336  1  0.84293200  0.83102000  0.78577600  1
  N  378  1  0.46592400  0.25952300  0.29426400  1
  N  379  1  0.46489900  0.96942200  0.29680600  1
  N  380  1  0.32845300  0.04746600  0.13876400  1
  N  381  1  0.14250800  0.94509100  0.28579300  1
  N  423  1  0.38442500  0.25340500  0.83374300  1
  N  424  1  0.10517200  0.95893200  0.82891800  1
  N  425  1  0.30209400  0.04749400  0.99352854  1
  N  426  1  0.41136100  0.95628200  0.84369400  1
  N  468  1  0.60084000  0.52251700  0.33377400  1
  N  469  1  0.88016900  0.81700800  0.32889300  1
  N  470  1  0.68317200  0.72815750  0.49352000  1
  N  471  1  0.57403100  0.81969000  0.34368700  1
  N  477  1  0.64065400  0.73047050  0.55679300  1
  N  478  1  0.64687500  0.73119150  0.58287900  1
  N  479  1  0.71513800  0.67336000  0.53425400  1
  N  491  1  0.34468700  0.04545400  0.05682400  1
  N  492  1  0.33857400  0.04490100  0.08291300  1
  N  493  1  0.27015800  0.10246400  0.03413600  1
  N  505  1  0.45890500  0.38159400  0.83441700  1
  N  506  1  0.48088700  0.42388800  0.82098100  1
  N  507  1  0.35373300  0.30255200  0.78962800  1
  N  519  1  0.43880400  0.86178700  0.83501500  1
  N  520  1  0.46567100  0.84482200  0.82308200  1
  N  521  1  0.44826300  0.95578500  0.78636400  1
  N  533  1  0.97712600  0.91406400  0.82647500  1
  N  534  1  0.93358600  0.88248400  0.81560100  1
  N  535  1  0.06484900  0.92741400  0.77252300  1
  N  547  1  0.52632800  0.39432500  0.33441200  1
  N  548  1  0.50439200  0.35210300  0.32096400  1
  N  549  1  0.63168300  0.47358800  0.28967200  1
  N  561  1  0.54670500  0.91429400  0.33500200  1
  N  562  1  0.51984500  0.93130500  0.32308300  1
  N  563  1  0.53708200  0.82031300  0.28641200  1
  N  575  1  0.00819400  0.86194800  0.32647000  1
  N  576  1  0.05176000  0.89356300  0.31559400  1
  N  577  1  0.92063900  0.84854500  0.27243500  1
