# generated using pymatgen
data_NaZnH6C16O9
_symmetry_space_group_name_H-M   'P 1'
_cell_length_a   10.69548000
_cell_length_b   10.69539000
_cell_length_c   21.97515000
_cell_angle_alpha   89.55835000
_cell_angle_beta   89.56149000
_cell_angle_gamma   89.99410000
_symmetry_Int_Tables_number   1
_chemical_formula_structural   NaZnH6C16O9
_chemical_formula_sum   'Na4 Zn4 H24 C64 O36'
_cell_volume   2513.64030371
_cell_formula_units_Z   4
loop_
 _symmetry_equiv_pos_site_id
 _symmetry_equiv_pos_as_xyz
  1  'x, y, z'
loop_
 _atom_site_type_symbol
 _atom_site_label
 _atom_site_symmetry_multiplicity
 _atom_site_fract_x
 _atom_site_fract_y
 _atom_site_fract_z
 _atom_site_occupancy
  Na  Na0  1  0.12502000  0.38134000  0.51223000  1
  Na  Na1  1  0.61867000  0.87497000  0.98777000  1
  Na  Na2  1  0.87498000  0.61867000  0.48777000  1
  Na  Na3  1  0.38134000  0.12504000  0.01223000  1
  Zn  Zn4  1  0.04695000  0.40972000  0.37384000  1
  Zn  Zn5  1  0.59029000  0.95306000  0.12616000  1
  Zn  Zn6  1  0.95305000  0.59029000  0.62616000  1
  Zn  Zn7  1  0.40972000  0.04695000  0.87384000  1
  H  H8  1  0.72340000  0.19252000  0.65358000  1
  H  H9  1  0.61663000  0.00838000  0.60772000  1
  H  H10  1  0.61283000  0.98454000  0.49433000  1
  H  H11  1  0.50950000  0.25084000  0.45609000  1
  H  H12  1  0.32984000  0.21888000  0.28233000  1
  H  H13  1  0.70400000  0.07624000  0.30480000  1
  H  H14  1  0.80748000  0.27661000  0.84642000  1
  H  H15  1  0.99162000  0.38337000  0.89228000  1
  H  H16  1  0.01546000  0.38718000  0.00568000  1
  H  H17  1  0.74917000  0.49051000  0.04391000  1
  H  H18  1  0.78112000  0.67016000  0.21767000  1
  H  H19  1  0.92377000  0.29600000  0.19521000  1
  H  H20  1  0.27660000  0.80749000  0.34642000  1
  H  H21  1  0.38337000  0.99163000  0.39228000  1
  H  H22  1  0.38718000  0.01547000  0.50568000  1
  H  H23  1  0.49050000  0.74917000  0.54391000  1
  H  H24  1  0.67016000  0.78113000  0.71767000  1
  H  H25  1  0.29600000  0.92376000  0.69521000  1
  H  H26  1  0.19252000  0.72340000  0.15358000  1
  H  H27  1  0.00838000  0.61664000  0.10772000  1
  H  H28  1  0.98454000  0.61283000  0.99432000  1
  H  H29  1  0.25084000  0.50950000  0.95609000  1
  H  H30  1  0.21888000  0.32985000  0.78234000  1
  H  H31  1  0.07623000  0.70401000  0.80479000  1
  C  C32  1  0.79043000  0.25059000  0.50439000  1
  C  C33  1  0.78854000  0.26611000  0.56803000  1
  C  C34  1  0.72401000  0.17916000  0.60451000  1
  C  C35  1  0.66256000  0.07718000  0.57858000  1
  C  C36  1  0.66012000  0.06294000  0.51547000  1
  C  C37  1  0.72296000  0.15083000  0.47939000  1
  C  C38  1  0.85314000  0.33822000  0.46000000  1
  C  C39  1  0.85020000  0.37568000  0.59750000  1
  C  C40  1  0.61772000  0.16092000  0.38413000  1
  C  C41  1  0.51138000  0.21860000  0.40925000  1
  C  C42  1  0.40732000  0.23759000  0.37230000  1
  C  C43  1  0.41059000  0.20180000  0.31101000  1
  C  C44  1  0.51733000  0.14339000  0.28677000  1
  C  C45  1  0.62152000  0.12256000  0.32310000  1
  C  C46  1  0.29025000  0.29426000  0.39875000  1
  C  C47  1  0.51764000  0.10238000  0.22157000  1
  C  C48  1  0.74941000  0.20959000  0.99561000  1
  C  C49  1  0.73389000  0.21147000  0.93197000  1
  C  C50  1  0.82084000  0.27600000  0.89549000  1
  C  C51  1  0.92282000  0.33744000  0.92143000  1
  C  C52  1  0.93706000  0.33989000  0.98453000  1
  C  C53  1  0.84918000  0.27705000  0.02062000  1
  C  C54  1  0.66179000  0.14688000  0.04000000  1
  C  C55  1  0.62430000  0.14981000  0.90250000  1
  C  C56  1  0.83909000  0.38229000  0.11588000  1
  C  C57  1  0.78141000  0.48863000  0.09075000  1
  C  C58  1  0.76241000  0.59269000  0.12770000  1
  C  C59  1  0.79821000  0.58941000  0.18899000  1
  C  C60  1  0.85662000  0.48267000  0.21324000  1
  C  C61  1  0.87745000  0.37848000  0.17690000  1
  C  C62  1  0.70574000  0.70976000  0.10125000  1
  C  C63  1  0.89764000  0.48236000  0.27844000  1
  C  C64  1  0.20958000  0.74942000  0.49561000  1
  C  C65  1  0.21146000  0.73390000  0.43198000  1
  C  C66  1  0.27599000  0.82085000  0.39549000  1
  C  C67  1  0.33744000  0.92283000  0.42143000  1
  C  C68  1  0.33989000  0.93707000  0.48453000  1
  C  C69  1  0.27704000  0.84918000  0.52062000  1
  C  C70  1  0.14686000  0.66179000  0.54000000  1
  C  C71  1  0.14981000  0.62433000  0.40250000  1
  C  C72  1  0.38228000  0.83908000  0.61587000  1
  C  C73  1  0.48862000  0.78141000  0.59075000  1
  C  C74  1  0.59268000  0.76241000  0.62770000  1
  C  C75  1  0.58941000  0.79821000  0.68899000  1
  C  C76  1  0.48267000  0.85662000  0.71324000  1
  C  C77  1  0.37848000  0.87744000  0.67690000  1
  C  C78  1  0.70975000  0.70575000  0.60125000  1
  C  C79  1  0.48236000  0.89763000  0.77843000  1
  C  C80  1  0.25059000  0.79042000  0.00439000  1
  C  C81  1  0.26612000  0.78854000  0.06803000  1
  C  C82  1  0.17916000  0.72401000  0.10451000  1
  C  C83  1  0.07718000  0.66257000  0.07857000  1
  C  C84  1  0.06294000  0.66012000  0.01547000  1
  C  C85  1  0.15083000  0.72296000  0.97938000  1
  C  C86  1  0.33822000  0.85313000  0.96000000  1
  C  C87  1  0.37570000  0.85020000  0.09750000  1
  C  C88  1  0.16092000  0.61772000  0.88413000  1
  C  C89  1  0.21860000  0.51138000  0.90925000  1
  C  C90  1  0.23759000  0.40732000  0.87230000  1
  C  C91  1  0.20180000  0.41060000  0.81101000  1
  C  C92  1  0.14338000  0.51734000  0.78676000  1
  C  C93  1  0.12256000  0.62153000  0.82310000  1
  C  C94  1  0.29426000  0.29025000  0.89875000  1
  C  C95  1  0.10237000  0.51765000  0.72157000  1
  O  O96  1  0.79395000  0.43195000  0.44204000  1
  O  O97  1  0.96352000  0.30554000  0.44225000  1
  O  O98  1  0.92714000  0.44377000  0.56440000  1
  O  O99  1  0.82576000  0.40237000  0.65147000  1
  O  O100  1  0.72613000  0.14275000  0.41614000  1
  O  O101  1  0.19969000  0.30673000  0.36091000  1
  O  O102  1  0.28797000  0.32279000  0.45414000  1
  O  O103  1  0.43098000  0.13606000  0.18730000  1
  O  O104  1  0.61051000  0.03178000  0.20535000  1
  O  O105  1  0.56806000  0.20606000  0.05796000  1
  O  O106  1  0.69447000  0.03649000  0.05776000  1
  O  O107  1  0.55623000  0.07285000  0.93561000  1
  O  O108  1  0.59756000  0.17425000  0.84854000  1
  O  O109  1  0.85726000  0.27388000  0.08387000  1
  O  O110  1  0.69328000  0.80032000  0.13909000  1
  O  O111  1  0.67720000  0.71204000  0.04586000  1
  O  O112  1  0.86397000  0.56903000  0.31270000  1
  O  O113  1  0.96823000  0.38949000  0.29466000  1
  O  O114  1  0.20605000  0.56806000  0.55796000  1
  O  O115  1  0.03648000  0.69447000  0.55776000  1
  O  O116  1  0.07286000  0.55623000  0.43560000  1
  O  O117  1  0.17424000  0.59763000  0.34853000  1
  O  O118  1  0.27387000  0.85726000  0.58387000  1
  O  O119  1  0.80032000  0.69327000  0.63910000  1
  O  O120  1  0.71203000  0.67722000  0.54586000  1
  O  O121  1  0.56902000  0.86395000  0.81271000  1
  O  O122  1  0.38950000  0.96823000  0.79466000  1
  O  O123  1  0.43194000  0.79395000  0.94204000  1
  O  O124  1  0.30554000  0.96351000  0.94224000  1
  O  O125  1  0.44377000  0.92716000  0.06439000  1
  O  O126  1  0.40244000  0.82576000  0.15147000  1
  O  O127  1  0.14274000  0.72613000  0.91613000  1
  O  O128  1  0.30672000  0.19969000  0.86091000  1
  O  O129  1  0.32281000  0.28797000  0.95414000  1
  O  O130  1  0.13603000  0.43098000  0.68730000  1
  O  O131  1  0.03177000  0.61052000  0.70534000  1
