# generated using pymatgen
data_HoCuH8C16N5O8
_symmetry_space_group_name_H-M   'P 1'
_cell_length_a   10.76477394
_cell_length_b   10.77839000
_cell_length_c   11.97608000
_cell_angle_alpha   69.73046000
_cell_angle_beta   83.34786709
_cell_angle_gamma   60.53533710
_symmetry_Int_Tables_number   1
_chemical_formula_structural   HoCuH8C16N5O8
_chemical_formula_sum   'Ho2 Cu2 H16 C32 N10 O16'
_cell_volume   1132.36652685
_cell_formula_units_Z   2
loop_
 _symmetry_equiv_pos_site_id
 _symmetry_equiv_pos_as_xyz
  1  'x, y, z'
loop_
 _atom_site_type_symbol
 _atom_site_label
 _atom_site_symmetry_multiplicity
 _atom_site_fract_x
 _atom_site_fract_y
 _atom_site_fract_z
 _atom_site_occupancy
  Ho  Ho1  1  0.54202000  0.46932000  0.83622000  1.0
  Ho  Ho2  1  0.46003000  0.53139000  0.15835000  1.0
  Cu  Cu1  1  0.00048000  0.00063000  0.99938000  1.0
  Cu  Cu2  1  0.99926000  0.00157000  0.49891000  1.0
  H  H1  1  0.02808000  0.71449000  0.47845000  1.0
  H  H2  1  0.91582000  0.54612000  0.57217000  1.0
  H  H3  1  0.67255000  0.83854000  0.77560000  1.0
  H  H4  1  0.78341000  0.00400000  0.66636000  1.0
  H  H5  1  0.98092000  0.28721000  0.81591000  1.0
  H  H6  1  0.12879000  0.42082000  0.76743000  1.0
  H  H7  1  0.41830000  0.07058000  0.06697000  1.0
  H  H8  1  0.25681000  0.95486000  0.10993000  1.0
  H  H9  1  0.97254000  0.28772000  0.52028000  1.0
  H  H10  1  0.08580000  0.45506000  0.42727000  1.0
  H  H11  1  0.32880000  0.16274000  0.22400000  1.0
  H  H12  1  0.21673000  0.99824000  0.33198000  1.0
  H  H13  1  0.01997000  0.71335000  0.18340000  1.0
  H  H14  1  0.87130000  0.58066000  0.23150000  1.0
  H  H15  1  0.58258000  0.93263000  0.93162000  1.0
  H  H16  1  0.74521000  0.04695000  0.88978000  1.0
  C  C1  1  0.17870000  0.85009000  0.71769000  1.0
  C  C2  1  0.17588000  0.84165000  0.83719000  1.0
  C  C3  1  0.28130000  0.76274000  0.64231000  1.0
  C  C4  1  0.26686000  0.73394000  0.94649000  1.0
  C  C5  1  0.94766000  0.73819000  0.54361000  1.0
  C  C6  1  0.88697000  0.64498000  0.59646000  1.0
  C  C7  1  0.78833000  0.67968000  0.68268000  1.0
  C  C8  1  0.74972000  0.81004000  0.70931000  1.0
  C  C9  1  0.81120000  0.90005000  0.65057000  1.0
  C  C10  1  0.72069000  0.58393000  0.74758000  1.0
  C  C11  1  0.07746000  0.24429000  0.86989000  1.0
  C  C12  1  0.15929000  0.31710000  0.84297000  1.0
  C  C13  1  0.28492000  0.25381000  0.91313000  1.0
  C  C14  1  0.32096000  0.12250000  0.01134000  1.0
  C  C15  1  0.23237000  0.05760000  0.03483000  1.0
  C  C16  1  0.37992000  0.32466000  0.87962000  1.0
  C  C17  1  0.81994000  0.15354000  0.27940000  1.0
  C  C18  1  0.82397000  0.16093000  0.15996000  1.0
  C  C19  1  0.71698000  0.24009000  0.35554000  1.0
  C  C20  1  0.73455000  0.26773000  0.04958000  1.0
  C  C21  1  0.05299000  0.26380000  0.45512000  1.0
  C  C22  1  0.11425000  0.35660000  0.40259000  1.0
  C  C23  1  0.21295000  0.32189000  0.31635000  1.0
  C  C24  1  0.25119000  0.19151000  0.28993000  1.0
  C  C25  1  0.18912000  0.10195000  0.34814000  1.0
  C  C26  1  0.28174000  0.41670000  0.25125000  1.0
  C  C27  1  0.92324000  0.75681000  0.12943000  1.0
  C  C28  1  0.84087000  0.68460000  0.15610000  1.0
  C  C29  1  0.71530000  0.74852000  0.08558000  1.0
  C  C30  1  0.67974000  0.88005000  0.98764000  1.0
  C  C31  1  0.76886000  0.94428000  0.96456000  1.0
  C  C32  1  0.61981000  0.67820000  0.11751000  1.0
  N  N1  1  0.05358000  0.97316000  0.66368000  1.0
  N  N2  1  0.97581000  0.04136000  0.74122000  1.0
  N  N3  1  0.04996000  0.96167000  0.84618000  1.0
  N  N4  1  0.91010000  0.86318000  0.57077000  1.0
  N  N5  1  0.11442000  0.11591000  0.96431000  1.0
  N  N6  1  0.94458000  0.03010000  0.33415000  1.0
  N  N7  1  0.02295000  0.96082000  0.25739000  1.0
  N  N8  1  0.94986000  0.04016000  0.15205000  1.0
  N  N9  1  0.08981000  0.13917000  0.42763000  1.0
  N  N10  1  0.88698000  0.88504000  0.03513000  1.0
  O  O1  1  0.23353000  0.78906000  0.54146000  1.0
  O  O2  1  0.41179000  0.67281000  0.68422000  1.0
  O  O3  1  0.38456000  0.61545000  0.94489000  1.0
  O  O4  1  0.22832000  0.75655000  0.04526000  1.0
  O  O5  1  0.72973000  0.48208000  0.71030000  1.0
  O  O6  1  0.65244000  0.61134000  0.83820000  1.0
  O  O7  1  0.50551000  0.25297000  0.93099000  1.0
  O  O8  1  0.33375000  0.45413000  0.79911000  1.0
  O  O9  1  0.76567000  0.21180000  0.45683000  1.0
  O  O10  1  0.58663000  0.33038000  0.31425000  1.0
  O  O11  1  0.61729000  0.38694000  0.05023000  1.0
  O  O12  1  0.77387000  0.24367000  0.95135000  1.0
  O  O13  1  0.27510000  0.51740000  0.28840000  1.0
  O  O14  1  0.34868000  0.38894000  0.16004000  1.0
  O  O15  1  0.49499000  0.75003000  0.06505000  1.0
  O  O16  1  0.66471000  0.54868000  0.19803000  1.0
