# generated using pymatgen
data_CePH11C7NO5
_symmetry_space_group_name_H-M   'P 1'
_cell_length_a   5.69060000
_cell_length_b   12.80000000
_cell_length_c   21.55000000
_cell_angle_alpha   90.00000000
_cell_angle_beta   95.39200000
_cell_angle_gamma   90.00000000
_symmetry_Int_Tables_number   1
_chemical_formula_structural   CePH11C7NO5
_chemical_formula_sum   'Ce4 P4 H44 C28 N4 O20'
_cell_volume   1562.74935213
_cell_formula_units_Z   4
loop_
 _symmetry_equiv_pos_site_id
 _symmetry_equiv_pos_as_xyz
  1  'x, y, z'
loop_
 _atom_site_type_symbol
 _atom_site_label
 _atom_site_symmetry_multiplicity
 _atom_site_fract_x
 _atom_site_fract_y
 _atom_site_fract_z
 _atom_site_occupancy
  Ce  Ce1  1  0.63155000  0.14376000  0.96900000  1.0
  Ce  Ce2  1  0.36845000  0.64376000  0.53100000  1.0
  Ce  Ce3  1  0.36845000  0.85624000  0.03100000  1.0
  Ce  Ce4  1  0.63155000  0.35624000  0.46900000  1.0
  P  P1  1  0.90460000  0.02500000  0.08404000  1.0
  P  P2  1  0.09540000  0.52500000  0.41596000  1.0
  P  P3  1  0.09540000  0.97500000  0.91596000  1.0
  P  P4  1  0.90460000  0.47500000  0.58404000  1.0
  H  H1  1  0.73460000  0.97980000  0.17480000  1.0
  H  H2  1  0.66730000  0.09480000  0.15640000  1.0
  H  H3  1  0.74240000  0.11490000  0.27310000  1.0
  H  H4  1  0.84450000  0.00130000  0.27880000  1.0
  H  H5  1  0.19750000  0.06210000  0.32870000  1.0
  H  H6  1  0.99040000  0.10490000  0.36460000  1.0
  H  H7  1  0.00980000  0.26760000  0.31610000  1.0
  H  H8  1  0.27670000  0.30100000  0.24530000  1.0
  H  H9  1  0.37320000  0.18650000  0.25180000  1.0
  H  H10  1  0.11440000  0.19910000  0.16100000  1.0
  H  H11  1  0.91210000  0.23960000  0.19960000  1.0
  H  H12  1  0.26540000  0.47980000  0.32520000  1.0
  H  H13  1  0.33270000  0.59480000  0.34360000  1.0
  H  H14  1  0.25760000  0.61490000  0.22690000  1.0
  H  H15  1  0.15550000  0.50130000  0.22120000  1.0
  H  H16  1  0.80250000  0.56210000  0.17130000  1.0
  H  H17  1  0.00960000  0.60490000  0.13540000  1.0
  H  H18  1  0.99020000  0.76760000  0.18390000  1.0
  H  H19  1  0.72330000  0.80100000  0.25470000  1.0
  H  H20  1  0.62680000  0.68650000  0.24820000  1.0
  H  H21  1  0.88560000  0.69910000  0.33900000  1.0
  H  H22  1  0.08790000  0.73960000  0.30040000  1.0
  H  H23  1  0.26540000  0.02020000  0.82520000  1.0
  H  H24  1  0.33270000  0.90520000  0.84360000  1.0
  H  H25  1  0.25760000  0.88510000  0.72690000  1.0
  H  H26  1  0.15550000  0.99870000  0.72120000  1.0
  H  H27  1  0.80250000  0.93790000  0.67130000  1.0
  H  H28  1  0.00960000  0.89510000  0.63540000  1.0
  H  H29  1  0.99020000  0.73240000  0.68390000  1.0
  H  H30  1  0.72330000  0.69900000  0.75470000  1.0
  H  H31  1  0.62680000  0.81350000  0.74820000  1.0
  H  H32  1  0.88560000  0.80090000  0.83900000  1.0
  H  H33  1  0.08790000  0.76040000  0.80040000  1.0
  H  H34  1  0.73460000  0.52020000  0.67480000  1.0
  H  H35  1  0.66730000  0.40520000  0.65640000  1.0
  H  H36  1  0.74240000  0.38510000  0.77310000  1.0
  H  H37  1  0.84450000  0.49870000  0.77880000  1.0
  H  H38  1  0.19750000  0.43790000  0.82870000  1.0
  H  H39  1  0.99040000  0.39510000  0.86460000  1.0
  H  H40  1  0.00980000  0.23240000  0.81610000  1.0
  H  H41  1  0.27670000  0.19900000  0.74530000  1.0
  H  H42  1  0.37320000  0.31350000  0.75180000  1.0
  H  H43  1  0.11440000  0.30090000  0.66100000  1.0
  H  H44  1  0.91210000  0.26040000  0.69960000  1.0
  C  C1  1  0.79710000  0.04550000  0.16110000  1.0
  C  C2  1  0.88500000  0.07380000  0.27240000  1.0
  C  C3  1  0.06300000  0.10880000  0.32570000  1.0
  C  C4  1  0.14800000  0.22180000  0.31590000  1.0
  C  C5  1  0.23300000  0.22920000  0.25290000  1.0
  C  C6  1  0.04900000  0.19400000  0.20080000  1.0
  C  C7  1  0.32300000  0.25690000  0.36700000  1.0
  C  C8  1  0.20290000  0.54550000  0.33890000  1.0
  C  C9  1  0.11500000  0.57380000  0.22760000  1.0
  C  C10  1  0.93700000  0.60880000  0.17430000  1.0
  C  C11  1  0.85200000  0.72180000  0.18410000  1.0
  C  C12  1  0.76700000  0.72920000  0.24710000  1.0
  C  C13  1  0.95100000  0.69400000  0.29920000  1.0
  C  C14  1  0.67700000  0.75690000  0.13300000  1.0
  C  C15  1  0.20290000  0.95450000  0.83890000  1.0
  C  C16  1  0.11500000  0.92620000  0.72760000  1.0
  C  C17  1  0.93700000  0.89120000  0.67430000  1.0
  C  C18  1  0.85200000  0.77820000  0.68410000  1.0
  C  C19  1  0.76700000  0.77080000  0.74710000  1.0
  C  C20  1  0.95100000  0.80600000  0.79920000  1.0
  C  C21  1  0.67700000  0.74310000  0.63300000  1.0
  C  C22  1  0.79710000  0.45450000  0.66110000  1.0
  C  C23  1  0.88500000  0.42620000  0.77240000  1.0
  C  C24  1  0.06300000  0.39120000  0.82570000  1.0
  C  C25  1  0.14800000  0.27820000  0.81590000  1.0
  C  C26  1  0.23300000  0.27080000  0.75290000  1.0
  C  C27  1  0.04900000  0.30600000  0.70080000  1.0
  C  C28  1  0.32300000  0.24310000  0.86700000  1.0
  N  N1  1  0.97400000  0.08450000  0.21090000  1.0
  N  N2  1  0.02600000  0.58450000  0.28910000  1.0
  N  N3  1  0.02600000  0.91550000  0.78910000  1.0
  N  N4  1  0.97400000  0.41550000  0.71090000  1.0
  O  O1  1  0.68450000  0.98170000  0.04600000  1.0
  O  O2  1  0.95840000  0.12910000  0.05500000  1.0
  O  O3  1  0.10910000  0.95220000  0.09210000  1.0
  O  O4  1  0.29860000  0.23590000  0.42320000  1.0
  O  O5  1  0.49900000  0.31180000  0.35490000  1.0
  O  O6  1  0.31550000  0.48170000  0.45400000  1.0
  O  O7  1  0.04160000  0.62910000  0.44500000  1.0
  O  O8  1  0.89090000  0.45220000  0.40790000  1.0
  O  O9  1  0.70140000  0.73590000  0.07680000  1.0
  O  O10  1  0.50100000  0.81180000  0.14510000  1.0
  O  O11  1  0.31550000  0.01830000  0.95400000  1.0
  O  O12  1  0.04160000  0.87090000  0.94500000  1.0
  O  O13  1  0.89090000  0.04780000  0.90790000  1.0
  O  O14  1  0.70140000  0.76410000  0.57680000  1.0
  O  O15  1  0.50100000  0.68820000  0.64510000  1.0
  O  O16  1  0.68450000  0.51830000  0.54600000  1.0
  O  O17  1  0.95840000  0.37090000  0.55500000  1.0
  O  O18  1  0.10910000  0.54780000  0.59210000  1.0
  O  O19  1  0.29860000  0.26410000  0.92320000  1.0
  O  O20  1  0.49900000  0.18820000  0.85490000  1.0
