# generated using pymatgen
data_CaH4(C2O)4
_symmetry_space_group_name_H-M   'P 1'
_cell_length_a   10.03320000
_cell_length_b   11.02477000
_cell_length_c   22.40463000
_cell_angle_alpha   95.21352000
_cell_angle_beta   89.87132000
_cell_angle_gamma   89.64469000
_symmetry_Int_Tables_number   1
_chemical_formula_structural   CaH4(C2O)4
_chemical_formula_sum   'Ca8 H32 C64 O32'
_cell_volume   2467.94964819
_cell_formula_units_Z   8
loop_
 _symmetry_equiv_pos_site_id
 _symmetry_equiv_pos_as_xyz
  1  'x, y, z'
loop_
 _atom_site_type_symbol
 _atom_site_label
 _atom_site_symmetry_multiplicity
 _atom_site_fract_x
 _atom_site_fract_y
 _atom_site_fract_z
 _atom_site_occupancy
  Ca  Ca0  1  0.97574000  0.45300000  0.83739000  1
  Ca  Ca1  1  0.02427000  0.54699000  0.16260000  1
  Ca  Ca2  1  0.82384000  0.74976000  0.25010000  1
  Ca  Ca3  1  0.17616000  0.25024000  0.74989000  1
  Ca  Ca4  1  0.97486000  0.04889000  0.66300000  1
  Ca  Ca5  1  0.00000000  0.50000000  0.00000000  1
  Ca  Ca6  1  0.00000000  0.00000000  0.50000000  1
  Ca  Ca7  1  0.02515000  0.95111000  0.33700000  1
  H  H8  1  0.69644000  0.15754000  0.48960000  1
  H  H9  1  0.14814000  0.13744000  0.00588000  1
  H  H10  1  0.52136000  0.69427000  0.94126000  1
  H  H11  1  0.19148000  0.58686000  0.50053000  1
  H  H12  1  0.85186000  0.86255000  0.99412000  1
  H  H13  1  0.73156000  0.66799000  0.99743000  1
  H  H14  1  0.00869000  0.87394000  0.81618000  1
  H  H15  1  0.80852000  0.41313000  0.49947000  1
  H  H16  1  0.49829000  0.41189000  0.84794000  1
  H  H17  1  0.85087000  0.63711000  0.50507000  1
  H  H18  1  0.47673000  0.19405000  0.44167000  1
  H  H19  1  0.30357000  0.84245000  0.51039000  1
  H  H20  1  0.99131000  0.12606000  0.18381000  1
  H  H21  1  0.99252000  0.37173000  0.31708000  1
  H  H22  1  0.80900000  0.08692000  0.00097000  1
  H  H23  1  0.88095000  0.20611000  0.91768000  1
  H  H24  1  0.50331000  0.91240000  0.34758000  1
  H  H25  1  0.14914000  0.36289000  0.49493000  1
  H  H26  1  0.11907000  0.70459000  0.41667000  1
  H  H27  1  0.30217000  0.65603000  0.98913000  1
  H  H28  1  0.88094000  0.29541000  0.58333000  1
  H  H29  1  0.49670000  0.08759000  0.65241000  1
  H  H30  1  0.47865000  0.30573000  0.05874000  1
  H  H31  1  0.26845000  0.33201000  0.00257000  1
  H  H32  1  0.19100000  0.91307000  0.99903000  1
  H  H33  1  0.69784000  0.34396000  0.01087000  1
  H  H34  1  0.50171000  0.58810000  0.15206000  1
  H  H35  1  0.73347000  0.83378000  0.50209000  1
  H  H36  1  0.26653000  0.16621000  0.49791000  1
  H  H37  1  0.52328000  0.80595000  0.55832000  1
  H  H38  1  0.11906000  0.79389000  0.08232000  1
  H  H39  1  0.00749000  0.62826000  0.68292000  1
  C  C40  1  0.49269000  0.38856000  0.89400000  1
  C  C41  1  0.93067000  0.64657000  0.59426000  1
  C  C42  1  0.03896000  0.27986000  0.09750000  1
  C  C43  1  0.36941000  0.37273000  0.92149000  1
  C  C44  1  0.26057000  0.59071000  0.10221000  1
  C  C45  1  0.00283000  0.61775000  0.31351000  1
  C  C46  1  0.12493000  0.08500000  0.04336000  1
  C  C47  1  0.75690000  0.89575000  0.38779000  1
  C  C48  1  0.05276000  0.54561000  0.36147000  1
  C  C49  1  0.87397000  0.58530000  0.54282000  1
  C  C50  1  0.03559000  0.41882000  0.35718000  1
  C  C51  1  0.48092000  0.16997000  0.48766000  1
  C  C52  1  0.03441000  0.07929000  0.14340000  1
  C  C53  1  0.24311000  0.10425000  0.61220000  1
  C  C54  1  0.73944000  0.40928000  0.89779000  1
  C  C55  1  0.96559000  0.92070000  0.85660000  1
  C  C56  1  0.05200000  0.95231000  0.13843000  1
  C  C57  1  0.51732000  0.67024000  0.98725000  1
  C  C58  1  0.51909000  0.83003000  0.51234000  1
  C  C59  1  0.75507000  0.60680000  0.11213000  1
  C  C60  1  0.85173000  0.46004000  0.53958000  1
  C  C61  1  0.00268000  0.87982000  0.18630000  1
  C  C62  1  0.89152000  0.10753000  0.91377000  1
  C  C63  1  0.06934000  0.35342000  0.40574000  1
  C  C64  1  0.39613000  0.84947000  0.48555000  1
  C  C65  1  0.10905000  0.60610000  0.41328000  1
  C  C66  1  0.99733000  0.12017000  0.81370000  1
  C  C67  1  0.14740000  0.95944000  0.03939000  1
  C  C68  1  0.96442000  0.58117000  0.64281000  1
  C  C69  1  0.87508000  0.91500000  0.95664000  1
  C  C70  1  0.12604000  0.41469000  0.45718000  1
  C  C71  1  0.94725000  0.45439000  0.63852000  1
  C  C72  1  0.96049000  0.78017000  0.59530000  1
  C  C73  1  0.14828000  0.53995000  0.46042000  1
  C  C74  1  0.03952000  0.21983000  0.40470000  1
  C  C75  1  0.94801000  0.04768000  0.86157000  1
  C  C76  1  0.39074000  0.87992000  0.42614000  1
  C  C77  1  0.63544000  0.65637000  0.01880000  1
  C  C78  1  0.10849000  0.89246000  0.08622000  1
  C  C79  1  0.38941000  0.61941000  0.07339000  1
  C  C80  1  0.36457000  0.34363000  0.98120000  1
  C  C81  1  0.49108000  0.11092000  0.60636000  1
  C  C82  1  0.48269000  0.32975000  0.01275000  1
  C  C83  1  0.85260000  0.04056000  0.96060000  1
  C  C84  1  0.26161000  0.90738000  0.39700000  1
  C  C85  1  0.36773000  0.12595000  0.57888000  1
  C  C86  1  0.50893000  0.88908000  0.39364000  1
  C  C87  1  0.99718000  0.38225000  0.68649000  1
  C  C88  1  0.50732000  0.61143000  0.10600000  1
  C  C89  1  0.36282000  0.15525000  0.51920000  1
  C  C90  1  0.39462000  0.64997000  0.01402000  1
  C  C91  1  0.60539000  0.35002000  0.98598000  1
  C  C92  1  0.63719000  0.84474000  0.48080000  1
  C  C93  1  0.73839000  0.09262000  0.60299000  1
  C  C94  1  0.61060000  0.38059000  0.92660000  1
  C  C95  1  0.89095000  0.39390000  0.58672000  1
  C  C96  1  0.93186000  0.85435000  0.90479000  1
  C  C97  1  0.24493000  0.39320000  0.88787000  1
  C  C98  1  0.96105000  0.72014000  0.90250000  1
  C  C99  1  0.63228000  0.87404000  0.42112000  1
  C  C100  1  0.06815000  0.14564000  0.09521000  1
  C  C101  1  0.63060000  0.62726000  0.07851000  1
  C  C102  1  0.60926000  0.12008000  0.57386000  1
  C  C103  1  0.60388000  0.15053000  0.51445000  1
  O  O104  1  0.96596000  0.67322000  0.95252000  1
  O  O105  1  0.00050000  0.76328000  0.17800000  1
  O  O106  1  0.04686000  0.43603000  0.73500000  1
  O  O107  1  0.00037000  0.73433000  0.32168000  1
  O  O108  1  0.01995000  0.33860000  0.14855000  1
  O  O109  1  0.95312000  0.93358000  0.23505000  1
  O  O110  1  0.03405000  0.32678000  0.04748000  1
  O  O111  1  0.86006000  0.56926000  0.08348000  1
  O  O112  1  0.13995000  0.43073000  0.91652000  1
  O  O113  1  0.84593000  0.41769000  0.93043000  1
  O  O114  1  0.15408000  0.58230000  0.06957000  1
  O  O115  1  0.84619000  0.08491000  0.57092000  1
  O  O116  1  0.24620000  0.37550000  0.83043000  1
  O  O117  1  0.74020000  0.07782000  0.65841000  1
  O  O118  1  0.24206000  0.12151000  0.66966000  1
  O  O119  1  0.95315000  0.56397000  0.26500000  1
  O  O120  1  0.86039000  0.93382000  0.41671000  1
  O  O121  1  0.02027000  0.15913000  0.35427000  1
  O  O122  1  0.99951000  0.23672000  0.82199000  1
  O  O123  1  0.99963000  0.26567000  0.67831000  1
  O  O124  1  0.96589000  0.82424000  0.54459000  1
  O  O125  1  0.75380000  0.62450000  0.16957000  1
  O  O126  1  0.04689000  0.06642000  0.76495000  1
  O  O127  1  0.03412000  0.17575000  0.45541000  1
  O  O128  1  0.74186000  0.42449000  0.84239000  1
  O  O129  1  0.98005000  0.66139000  0.85144000  1
  O  O130  1  0.15382000  0.91508000  0.42908000  1
  O  O131  1  0.13962000  0.06618000  0.58329000  1
  O  O132  1  0.97974000  0.84086000  0.64573000  1
  O  O133  1  0.75795000  0.87849000  0.33034000  1
  O  O134  1  0.25981000  0.92217000  0.34159000  1
  O  O135  1  0.25815000  0.57551000  0.15760000  1
