# generated using pymatgen
data_Mn2H5C9N5O6
_symmetry_space_group_name_H-M   'P 1'
_cell_length_a   7.66054000
_cell_length_b   10.69742000
_cell_length_c   19.23402000
_cell_angle_alpha   94.22502000
_cell_angle_beta   89.97503000
_cell_angle_gamma   89.97869000
_symmetry_Int_Tables_number   1
_chemical_formula_structural   Mn2H5C9N5O6
_chemical_formula_sum   'Mn8 H20 C36 N20 O24'
_cell_volume   1571.90600561
_cell_formula_units_Z   4
loop_
 _symmetry_equiv_pos_site_id
 _symmetry_equiv_pos_as_xyz
  1  'x, y, z'
loop_
 _atom_site_type_symbol
 _atom_site_label
 _atom_site_symmetry_multiplicity
 _atom_site_fract_x
 _atom_site_fract_y
 _atom_site_fract_z
 _atom_site_occupancy
  Mn  Mn1  1  0.62231000  0.68368000  0.02267000  1.0
  Mn  Mn2  1  0.64874000  0.70587000  0.23213000  1.0
  Mn  Mn3  1  0.08327000  0.32302000  0.48405000  1.0
  Mn  Mn4  1  0.15193000  0.28821000  0.26421000  1.0
  Mn  Mn5  1  0.41928000  0.32168000  0.98419000  1.0
  Mn  Mn6  1  0.34754000  0.28828000  0.76385000  1.0
  Mn  Mn7  1  0.87658000  0.68434000  0.52287000  1.0
  Mn  Mn8  1  0.85086000  0.70629000  0.73249000  1.0
  H  H1  1  0.12041000  0.92834000  0.41970000  1.0
  H  H2  1  0.95346000  0.95944000  0.36033000  1.0
  H  H3  1  0.99162000  0.88870000  0.23254000  1.0
  H  H4  1  0.26310000  0.77349000  0.15716000  1.0
  H  H5  1  0.44273000  0.87881000  0.36039000  1.0
  H  H6  1  0.60614000  0.08358000  0.08670000  1.0
  H  H7  1  0.44501000  0.04851000  0.14748000  1.0
  H  H8  1  0.49523000  0.11151000  0.27383000  1.0
  H  H9  1  0.77440000  0.22132000  0.34634000  1.0
  H  H10  1  0.94001000  0.11116000  0.14183000  1.0
  H  H11  1  0.89371000  0.08314000  0.58655000  1.0
  H  H12  1  0.05554000  0.04921000  0.64732000  1.0
  H  H13  1  0.00467000  0.11263000  0.77392000  1.0
  H  H14  1  0.72401000  0.22070000  0.84666000  1.0
  H  H15  1  0.56066000  0.11240000  0.64171000  1.0
  H  H16  1  0.37858000  0.92870000  0.91986000  1.0
  H  H17  1  0.54643000  0.95832000  0.86042000  1.0
  H  H18  1  0.50824000  0.88855000  0.73253000  1.0
  H  H19  1  0.23730000  0.77326000  0.65718000  1.0
  H  H20  1  0.05755000  0.87777000  0.86062000  1.0
  C  C1  1  0.45891000  0.46886000  0.25996000  1.0
  C  C2  1  0.45574000  0.47045000  0.18250000  1.0
  C  C3  1  0.40082000  0.38642000  0.12771000  1.0
  C  C4  1  0.31517000  0.26567000  0.11798000  1.0
  C  C5  1  0.13834000  0.10904000  0.37833000  1.0
  C  C6  1  0.09418000  0.96957000  0.37010000  1.0
  C  C7  1  0.12512000  0.87046000  0.24700000  1.0
  C  C8  1  0.26081000  0.81371000  0.21043000  1.0
  C  C9  1  0.35903000  0.86504000  0.31511000  1.0
  C  C10  1  0.96093000  0.52637000  0.23891000  1.0
  C  C11  1  0.95262000  0.52448000  0.31663000  1.0
  C  C12  1  0.89599000  0.60855000  0.37172000  1.0
  C  C13  1  0.79774000  0.72892000  0.37932000  1.0
  C  C14  1  0.61560000  0.89634000  0.11743000  1.0
  C  C15  1  0.58361000  0.03531000  0.13433000  1.0
  C  C16  1  0.62871000  0.12629000  0.25808000  1.0
  C  C17  1  0.76803000  0.18073000  0.29325000  1.0
  C  C18  1  0.85897000  0.12643000  0.18780000  1.0
  C  C19  1  0.53868000  0.52610000  0.73842000  1.0
  C  C20  1  0.54643000  0.52369000  0.81614000  1.0
  C  C21  1  0.60290000  0.60738000  0.87130000  1.0
  C  C22  1  0.70239000  0.72686000  0.87909000  1.0
  C  C23  1  0.88442000  0.89673000  0.61800000  1.0
  C  C24  1  0.91678000  0.03588000  0.63449000  1.0
  C  C25  1  0.87114000  0.12727000  0.75820000  1.0
  C  C26  1  0.73124000  0.18100000  0.79341000  1.0
  C  C27  1  0.64129000  0.12741000  0.68778000  1.0
  C  C28  1  0.04047000  0.46897000  0.75992000  1.0
  C  C29  1  0.04334000  0.47056000  0.68252000  1.0
  C  C30  1  0.09972000  0.38709000  0.62773000  1.0
  C  C31  1  0.18793000  0.26738000  0.61778000  1.0
  C  C32  1  0.36277000  0.10881000  0.87802000  1.0
  C  C33  1  0.40575000  0.96915000  0.87010000  1.0
  C  C34  1  0.37484000  0.87017000  0.74704000  1.0
  C  C35  1  0.23934000  0.81334000  0.71047000  1.0
  C  C36  1  0.14106000  0.86439000  0.81523000  1.0
  N  N1  1  0.53364000  0.56729000  0.15406000  1.0
  N  N2  1  0.53286000  0.54707000  0.08419000  1.0
  N  N3  1  0.45158000  0.43587000  0.06663000  1.0
  N  N4  1  0.40673000  0.81103000  0.25322000  1.0
  N  N5  1  0.18852000  0.90162000  0.31360000  1.0
  N  N6  1  0.02057000  0.42355000  0.34554000  1.0
  N  N7  1  0.01046000  0.44405000  0.41499000  1.0
  N  N8  1  0.93719000  0.55656000  0.43175000  1.0
  N  N9  1  0.91170000  0.18022000  0.24907000  1.0
  N  N10  1  0.68771000  0.09294000  0.19115000  1.0
  N  N11  1  0.47793000  0.42285000  0.84497000  1.0
  N  N12  1  0.48750000  0.44320000  0.91445000  1.0
  N  N13  1  0.56107000  0.55549000  0.93131000  1.0
  N  N14  1  0.58790000  0.18056000  0.74911000  1.0
  N  N15  1  0.81269000  0.09422000  0.69117000  1.0
  N  N16  1  0.96457000  0.56708000  0.65411000  1.0
  N  N17  1  0.96597000  0.54712000  0.58424000  1.0
  N  N18  1  0.04906000  0.43658000  0.56663000  1.0
  N  N19  1  0.09347000  0.81047000  0.75333000  1.0
  N  N20  1  0.31140000  0.90120000  0.81366000  1.0
  O  O1  1  0.24773000  0.15628000  0.33976000  1.0
  O  O2  1  0.04892000  0.16970000  0.42710000  1.0
  O  O3  1  0.54335000  0.55715000  0.29234000  1.0
  O  O4  1  0.38372000  0.38036000  0.28859000  1.0
  O  O5  1  0.24954000  0.20601000  0.16600000  1.0
  O  O6  1  0.31603000  0.22036000  0.05245000  1.0
  O  O7  1  0.72341000  0.83594000  0.15185000  1.0
  O  O8  1  0.52511000  0.84918000  0.06560000  1.0
  O  O9  1  0.04884000  0.43811000  0.20776000  1.0
  O  O10  1  0.88593000  0.61333000  0.20889000  1.0
  O  O11  1  0.75805000  0.78762000  0.32681000  1.0
  O  O12  1  0.75816000  0.76816000  0.44248000  1.0
  O  O13  1  0.77609000  0.83700000  0.65256000  1.0
  O  O14  1  0.97485000  0.84919000  0.56615000  1.0
  O  O15  1  0.45093000  0.43810000  0.70705000  1.0
  O  O16  1  0.61379000  0.61326000  0.70865000  1.0
  O  O17  1  0.74203000  0.78682000  0.82701000  1.0
  O  O18  1  0.74323000  0.76427000  0.94231000  1.0
  O  O19  1  0.25406000  0.15627000  0.83931000  1.0
  O  O20  1  0.45241000  0.16929000  0.92676000  1.0
  O  O21  1  0.95594000  0.55728000  0.79232000  1.0
  O  O22  1  0.11600000  0.38055000  0.78851000  1.0
  O  O23  1  0.25227000  0.20647000  0.66554000  1.0
  O  O24  1  0.19130000  0.22426000  0.55196000  1.0
