# generated using pymatgen
data_H7C16N4O3
_symmetry_space_group_name_H-M   'P 1'
_cell_length_a   25.05417500
_cell_length_b   25.05420000
_cell_length_c   29.10490000
_cell_angle_alpha   90.00000000
_cell_angle_beta   90.00000000
_cell_angle_gamma   120.00009902
_symmetry_Int_Tables_number   1
_chemical_formula_structural   H7C16N4O3
_chemical_formula_sum   'H84 C192 N48 O36'
_cell_volume   15821.83883309
_cell_formula_units_Z   12
loop_
 _symmetry_equiv_pos_site_id
 _symmetry_equiv_pos_as_xyz
  1  'x, y, z'
loop_
 _atom_site_type_symbol
 _atom_site_label
 _atom_site_symmetry_multiplicity
 _atom_site_fract_x
 _atom_site_fract_y
 _atom_site_fract_z
 _atom_site_occupancy
  C  1  1  0.39875350  0.47128150  0.98495900  1
  C  2  1  0.36369250  0.47947950  0.02002600  1
  C  3  1  0.32987350  0.51015550  0.01202400  1
  C  4  1  0.33787900  0.54013600  0.96895800  1
  C  5  1  0.37528750  0.53661050  0.93377500  1
  C  6  1  0.40115600  0.49834700  0.94149450  1
  C  9  1  0.43144250  0.43869750  0.99288300  1
  C  10  1  0.45962400  0.44234700  0.03608350  1
  C  11  1  0.49686750  0.41543150  0.04423700  1
  C  12  1  0.49822750  0.37591550  0.00984550  1
  C  13  1  0.46827400  0.36784200  0.96676650  1
  C  14  1  0.43887500  0.40275900  0.95813850  1
  C  21  1  0.38591700  0.56889600  0.89163050  1
  C  22  1  0.28680150  0.50989850  0.04390850  1
  C  23  1  0.53037500  0.42740100  0.08593250  1
  C  24  1  0.46680850  0.32369750  0.93539750  1
  C  29  1  0.94468050  0.46622450  0.31848850  1
  C  30  1  0.98816150  0.50122550  0.35343600  1
  C  31  1  0.05265650  0.53433150  0.34537000  1
  C  32  1  0.07438650  0.52563950  0.30242600  1
  C  33  1  0.03323150  0.48837850  0.26728900  1
  C  34  1  0.96916750  0.46318550  0.27507800  1
  C  37  1  0.87942500  0.43401700  0.32661950  1
  C  38  1  0.85492000  0.40661000  0.37006050  1
  C  39  1  0.79075800  0.36911300  0.37820350  1
  C  40  1  0.74979500  0.36699900  0.34358550  1
  C  41  1  0.77165250  0.39650750  0.30037450  1
  C  42  1  0.83598250  0.42612150  0.29181050  1
  C  49  1  0.05463150  0.47723650  0.22518600  1
  C  50  1  0.09568950  0.57729550  0.37718100  1
  C  51  1  0.76926200  0.33587100  0.42002650  1
  C  52  1  0.72893750  0.39731250  0.26872850  1
  C  57  1  0.39390450  0.91913950  0.65173850  1
  C  58  1  0.38545800  0.87565700  0.68666300  1
  C  59  1  0.35403200  0.81116600  0.67860850  1
  C  60  1  0.32370950  0.78941950  0.63564650  1
  C  61  1  0.32762050  0.83058650  0.60052000  1
  C  62  1  0.36648400  0.89466000  0.60829900  1
  C  65  1  0.42687400  0.98438800  0.65988050  1
  C  66  1  0.42384650  0.00889850  0.70328850  1
  C  67  1  0.45050500  0.07304600  0.71147700  1
  C  68  1  0.48926600  0.11400400  0.67681200  1
  C  69  1  0.49704600  0.09216300  0.63361600  1
  C  70  1  0.46239450  0.02782350  0.62506450  1
  C  77  1  0.29515200  0.80913700  0.55840200  1
  C  78  1  0.35387150  0.76812950  0.71043350  1
  C  79  1  0.43873450  0.09449050  0.75333150  1
  C  80  1  0.54061000  0.13488800  0.60197700  1
  C  85  1  0.44608150  0.27278250  0.86039550  1
  C  86  1  0.44769800  0.28469200  0.81282450  1
  C  87  1  0.44894100  0.24436000  0.78009100  1
  C  88  1  0.44404200  0.18736200  0.79176350  1
  C  89  1  0.43859200  0.17327300  0.83913750  1
  C  90  1  0.44121400  0.21538100  0.87212750  1
  C  93  1  0.45874300  0.32487200  0.74756100  1
  C  96  1  0.43318600  0.13493700  0.90424850  1
  C  101  1  0.69923950  0.41770250  0.19347150  1
  C  102  1  0.70985150  0.41598950  0.14597050  1
  C  103  1  0.66876100  0.41523100  0.11302450  1
  C  104  1  0.61697300  0.42077100  0.12445550  1
  C  105  1  0.60786200  0.42599300  0.17176900  1
  C  106  1  0.64680500  0.42285300  0.20495900  1
  C  109  1  0.73916700  0.40454133  0.08089550  1
  C  112  1  0.57426500  0.43105900  0.23668750  1
  C  117  1  0.59112650  0.16482850  0.52686250  1
  C  118  1  0.57915000  0.15445800  0.47929850  1
  C  119  1  0.61943100  0.19603200  0.44653900  1
  C  120  1  0.67641200  0.24815800  0.45820200  1
  C  121  1  0.69054250  0.25688650  0.50555850  1
  C  122  1  0.64850300  0.21740200  0.53856350  1
  C  125  1  0.53891050  0.12528950  0.41404600  1
  C  128  1  0.72893950  0.28990450  0.57063500  1
  C  133  1  0.38219600  0.65718000  0.85353200  1
  C  134  1  0.38059450  0.64436150  0.80613050  1
  C  135  1  0.37705450  0.68322050  0.77305750  1
  C  136  1  0.37827600  0.73903500  0.78453350  1
  C  137  1  0.38363950  0.75319650  0.83188200  1
  C  138  1  0.38322900  0.71244800  0.86498250  1
  C  141  1  0.37416350  0.60476350  0.74139300  1
  C  144  1  0.38451150  0.78929750  0.89726050  1
  C  149  1  0.14670600  0.48087000  0.18686750  1
  C  150  1  0.13566500  0.48245600  0.13942900  1
  C  151  1  0.17827900  0.48621800  0.10643400  1
  C  152  1  0.23299700  0.48525200  0.11797850  1
  C  153  1  0.24158000  0.47981300  0.16536600  1
  C  154  1  0.20100250  0.47997450  0.19838600  1
  C  157  1  0.10264250  0.48881850  0.07462000  1
  C  160  1  0.27656350  0.47887250  0.23084000  1
  C  165  1  0.20668200  0.71708900  0.52022100  1
  C  166  1  0.21944550  0.72814950  0.47280450  1
  C  167  1  0.18061900  0.68560800  0.43977550  1
  C  168  1  0.12485050  0.63098250  0.45128400  1
  C  169  1  0.11073350  0.62232050  0.49865100  1
  C  170  1  0.15145500  0.66281400  0.53171400  1
  C  173  1  0.25901000  0.76115100  0.40804050  1
  C  176  1  0.07472150  0.58721550  0.56407950  1
  C  721  1  0.07944550  0.79058950  0.95060050  1
  C  722  1  0.04438450  0.79878750  0.98566750  1
  C  723  1  0.01056550  0.82946350  0.97766550  1
  C  724  1  0.01857100  0.85944400  0.93459950  1
  C  725  1  0.05597950  0.85591850  0.89941700  1
  C  726  1  0.08184800  0.81765500  0.90713600  1
  C  729  1  0.11213450  0.75800550  0.95852450  1
  C  730  1  0.14031600  0.76165500  0.00172550  1
  C  731  1  0.17755950  0.73473950  0.00987900  1
  C  732  1  0.17891950  0.69522350  0.97548700  1
  C  733  1  0.14896600  0.68715000  0.93240800  1
  C  734  1  0.11956700  0.72206700  0.92378000  1
  C  741  1  0.06660900  0.88820400  0.85727250  1
  C  742  1  0.96749330  0.82920630  0.00955050  1
  C  743  1  0.21106700  0.74670900  0.05157450  1
  C  744  1  0.14750050  0.64300550  0.90103900  1
  C  749  1  0.62537250  0.78553220  0.28413050  1
  C  750  1  0.66885350  0.82053320  0.31907800  1
  C  751  1  0.73334850  0.85363920  0.31101200  1
  C  752  1  0.75507850  0.84494720  0.26806800  1
  C  753  1  0.71392350  0.80768620  0.23293100  1
  C  754  1  0.64985950  0.78249320  0.24072000  1
  C  757  1  0.56011700  0.75332470  0.29226150  1
  C  758  1  0.53561200  0.72591770  0.33570250  1
  C  759  1  0.47145000  0.68842100  0.34384550  1
  C  760  1  0.43048700  0.68630700  0.30922750  1
  C  761  1  0.45234450  0.71581550  0.26601650  1
  C  762  1  0.51667450  0.74542950  0.25745250  1
  C  769  1  0.73532350  0.79654420  0.19082800  1
  C  770  1  0.77638150  0.89660320  0.34282300  1
  C  771  1  0.44995400  0.65517900  0.38566850  1
  C  772  1  0.40962950  0.71662050  0.23437050  1
  C  777  1  0.07459650  0.23844720  0.61738050  1
  C  778  1  0.06615000  0.19496470  0.65230500  1
  C  779  1  0.03472400  0.13047370  0.64425050  1
  C  780  1  0.00440150  0.10872720  0.60128850  1
  C  781  1  0.00831250  0.14989420  0.56616200  1
  C  782  1  0.04717600  0.21396770  0.57394100  1
  C  785  1  0.10756600  0.30369570  0.62552250  1
  C  786  1  0.10453850  0.32820650  0.66893050  1
  C  787  1  0.13119700  0.39235400  0.67711900  1
  C  788  1  0.16995800  0.43331200  0.64245400  1
  C  789  1  0.17773800  0.41147100  0.59925800  1
  C  790  1  0.14308650  0.34713150  0.59070650  1
  C  797  1  0.97584380  0.12844450  0.52404400  1
  C  798  1  0.03456350  0.08743720  0.67607550  1
  C  799  1  0.11942650  0.41379850  0.71897350  1
  C  800  1  0.22130200  0.45419600  0.56761900  1
  C  805  1  0.12677350  0.59209050  0.82603750  1
  C  806  1  0.12839000  0.60400000  0.77846650  1
  C  807  1  0.12963300  0.56366800  0.74573300  1
  C  808  1  0.12473400  0.50667000  0.75740550  1
  C  809  1  0.11928400  0.49258100  0.80477950  1
  C  810  1  0.12190600  0.53468900  0.83776950  1
  C  813  1  0.13943500  0.64418000  0.71320300  1
  C  816  1  0.11387800  0.45424500  0.86989050  1
  C  821  1  0.37993150  0.73701050  0.15911350  1
  C  822  1  0.39054350  0.73529750  0.11161250  1
  C  823  1  0.34945300  0.73453900  0.07866650  1
  C  824  1  0.29766500  0.74007900  0.09009750  1
  C  825  1  0.28855400  0.74530100  0.13741100  1
  C  826  1  0.32749700  0.74216100  0.17060100  1
  C  829  1  0.41985900  0.72386200  0.04653750  1
  C  832  1  0.25495700  0.75036700  0.20232950  1
  C  837  1  0.27181850  0.48413650  0.49250450  1
  C  838  1  0.25984200  0.47376600  0.44494050  1
  C  839  1  0.30012300  0.51534000  0.41218100  1
  C  840  1  0.35710400  0.56746600  0.42384400  1
  C  841  1  0.37123450  0.57619450  0.47120050  1
  C  842  1  0.32919500  0.53671000  0.50420550  1
  C  845  1  0.21960250  0.44459750  0.37968800  1
  C  848  1  0.40963150  0.60921220  0.53627700  1
  C  853  1  0.06288800  0.97648800  0.81917400  1
  C  854  1  0.06128650  0.96366950  0.77177250  1
  C  855  1  0.05774650  0.00252850  0.73869950  1
  C  856  1  0.05896800  0.05834300  0.75017550  1
  C  857  1  0.06433150  0.07250424  0.79752400  1
  C  858  1  0.06392100  0.03175600  0.83062450  1
  C  861  1  0.05485550  0.92407150  0.70703500  1
  C  864  1  0.06520350  0.10860520  0.86290250  1
  C  869  1  0.82739780  0.80017780  0.15250950  1
  C  870  1  0.81635680  0.80176380  0.10507100  1
  C  871  1  0.85897080  0.80552580  0.07207600  1
  C  872  1  0.91368880  0.80455980  0.08362050  1
  C  873  1  0.92227180  0.79912080  0.13100800  1
  C  874  1  0.88169430  0.79928230  0.16402800  1
  C  877  1  0.78333450  0.80812620  0.04026200  1
  C  880  1  0.95725530  0.79818030  0.19648200  1
  C  885  1  0.88737380  0.03639650  0.48586300  1
  C  886  1  0.90013730  0.04745700  0.43844650  1
  C  887  1  0.86131080  0.00491550  0.40541750  1
  C  888  1  0.80554230  0.95029000  0.41692600  1
  C  889  1  0.79142550  0.94162820  0.46429300  1
  C  890  1  0.83214680  0.98212150  0.49735600  1
  C  893  1  0.93970180  0.08045850  0.37368250  1
  C  896  1  0.75541350  0.90652320  0.52972150  1
  H  7  1  0.35777200  0.45754700  0.05082850  1
  H  16  1  0.41637650  0.39619350  0.92752800  1
  H  17  1  0.26932350  0.54327450  0.94437150  1
  H  18  1  0.49988200  0.30720700  0.03564700  1
  H  19  1  0.42853000  0.49618300  0.91631200  1
  H  20  1  0.45849150  0.47082050  0.06081800  1
  H  25  1  0.48326900  0.29622400  0.94684550  1
  H  26  1  0.40514750  0.55829950  0.86469550  1
  H  27  1  0.26133200  0.52898200  0.03325750  1
  H  28  1  0.52184000  0.44923700  0.11217550  1
  H  35  1  0.97237650  0.50781650  0.38411150  1
  H  44  1  0.85188700  0.44808700  0.26100850  1
  H  45  1  0.14679900  0.59337400  0.27784750  1
  H  46  1  0.67887050  0.36469850  0.36891100  1
  H  47  1  0.93941700  0.43591900  0.24995850  1
  H  48  1  0.88451900  0.40794600  0.39486900  1
  H  53  1  0.68490850  0.38072750  0.28000700  1
  H  54  1  0.02480400  0.45840800  0.19819900  1
  H  55  1  0.14028350  0.60247950  0.36653850  1
  H  56  1  0.79964250  0.34462450  0.44629150  1
  H  63  1  0.40762950  0.89143450  0.71741350  1
  H  72  1  0.46864300  0.01196100  0.59430800  1
  H  73  1  0.31917250  0.71704750  0.61110450  1
  H  74  1  0.55781300  0.18504200  0.70207500  1
  H  75  1  0.36884650  0.92436050  0.58318300  1
  H  76  1  0.39574300  0.97926700  0.72814850  1
  H  81  1  0.56787750  0.17894050  0.61326400  1
  H  82  1  0.30600200  0.83900300  0.53146100  1
  H  83  1  0.33438250  0.72350750  0.69984650  1
  H  84  1  0.41735650  0.06410650  0.77964600  1
  H  97  1  0.46490900  0.35538900  0.72203750  1
  H  98  1  0.43018550  0.10562250  0.92978100  1
  H  113  1  0.76353750  0.39815650  0.05551150  1
  H  114  1  0.54776000  0.43404100  0.26207300  1
  H  129  1  0.50837400  0.10091900  0.38853700  1
  H  130  1  0.75826250  0.31626050  0.59614800  1
  H  145  1  0.37119300  0.57517300  0.71609700  1
  H  146  1  0.38445600  0.81718000  0.92281600  1
  H  161  1  0.07605450  0.49172650  0.04926650  1
  H  162  1  0.30444550  0.47898450  0.25646250  1
  H  177  1  0.28858000  0.78772600  0.38271650  1
  H  178  1  0.04690100  0.55930100  0.58966800  1
  H  727  1  0.03846400  0.77685500  0.01647050  1
  H  736  1  0.09706850  0.71550150  0.89317000  1
  H  737  1  0.95001530  0.86258230  0.91001300  1
  H  738  1  0.18057400  0.62651500  0.00128900  1
  H  739  1  0.10922200  0.81549100  0.88195400  1
  H  740  1  0.13918350  0.79012850  0.02646000  1
  H  745  1  0.16396100  0.61553200  0.91248700  1
  H  746  1  0.08583950  0.87760750  0.83033750  1
  H  747  1  0.94202380  0.84828980  0.99889902  1
  H  748  1  0.20253200  0.76854500  0.07781750  1
  H  755  1  0.65306850  0.82712420  0.34975350  1
  H  764  1  0.53257900  0.76739500  0.22665050  1
  H  765  1  0.82749080  0.91268150  0.24348950  1
  H  766  1  0.35956250  0.68400650  0.33455300  1
  H  767  1  0.62010900  0.75522670  0.21560050  1
  H  768  1  0.56521100  0.72725370  0.36051100  1
  H  773  1  0.36560050  0.70003550  0.24564900  1
  H  774  1  0.70549600  0.77771570  0.16384100  1
  H  775  1  0.82097530  0.92178700  0.33218050  1
  H  776  1  0.48033450  0.66393220  0.41193350  1
  H  783  1  0.08832150  0.21074220  0.68305550  1
  H  792  1  0.14933500  0.33126870  0.55995000  1
  H  793  1  0.99986441  0.03635511  0.57674650  1
  H  794  1  0.23850500  0.50435000  0.66771700  1
  H  795  1  0.04953850  0.24366820  0.54882500  1
  H  796  1  0.07643500  0.29857500  0.69379050  1
  H  801  1  0.24856950  0.49824850  0.57890600  1
  H  802  1  0.98669381  0.15831051  0.49710300  1
  H  803  1  0.01507450  0.04281520  0.66548850  1
  H  804  1  0.09804850  0.38341450  0.74528800  1
  H  817  1  0.14560100  0.67469700  0.68767950  1
  H  818  1  0.11087750  0.42493050  0.89542300  1
  H  833  1  0.44422950  0.71746450  0.02115350  1
  H  834  1  0.22845200  0.75334900  0.22771500  1
  H  849  1  0.18906600  0.42022700  0.35417900  1
  H  850  1  0.43895450  0.63556820  0.56179000  1
  H  865  1  0.05188500  0.89448100  0.68173900  1
  H  866  1  0.06514800  0.13648770  0.88845800  1
  H  881  1  0.75674650  0.81103420  0.01490850  1
  H  882  1  0.98513731  0.79829231  0.22210450  1
  H  897  1  0.96927180  0.10703350  0.34835850  1
  H  898  1  0.72759300  0.87860870  0.55531000  1
  N  91  1  0.45581000  0.27078300  0.73917950  1
  N  94  1  0.43702900  0.18933200  0.91286100  1
  N  99  1  0.45148550  0.31727350  0.89025300  1
  N  100  1  0.44732800  0.15219900  0.75769400  1
  N  107  1  0.68842500  0.40812900  0.07223200  1
  N  110  1  0.62456250  0.42687550  0.24557050  1
  N  115  1  0.73810950  0.41238350  0.22356250  1
  N  116  1  0.57896450  0.41800350  0.09026000  1
  N  123  1  0.59297500  0.17646700  0.40563850  1
  N  126  1  0.67459900  0.23930500  0.57927850  1
  N  131  1  0.54683500  0.12575200  0.55683850  1
  N  132  1  0.71156450  0.28668550  0.42418550  1
  N  139  1  0.37375350  0.65707050  0.73251350  1
  N  142  1  0.38396450  0.73640850  0.90595300  1
  N  147  1  0.38000900  0.61967500  0.88791850  1
  N  148  1  0.37321150  0.77833850  0.75471550  1
  N  155  1  0.15550800  0.48948400  0.06584850  1
  N  158  1  0.22409450  0.47922050  0.23941000  1
  N  163  1  0.11128050  0.48304850  0.22121100  1
  N  164  1  0.27760200  0.49060000  0.08822750  1
  N  171  1  0.20675500  0.70835900  0.39921400  1
  N  174  1  0.12755000  0.63964800  0.57270850  1
  N  179  1  0.24427800  0.75250500  0.55455550  1
  N  180  1  0.08556800  0.58652900  0.42147800  1
  N  811  1  0.13650200  0.59009100  0.70482150  1
  N  814  1  0.11772100  0.50864000  0.87850300  1
  N  819  1  0.13217750  0.63658150  0.85589500  1
  N  820  1  0.12802000  0.47150700  0.72333600  1
  N  827  1  0.36911700  0.72743700  0.03787400  1
  N  830  1  0.30525450  0.74618350  0.21121250  1
  N  835  1  0.41880150  0.73169150  0.18920450  1
  N  836  1  0.25965650  0.73731150  0.05590200  1
  N  843  1  0.27366700  0.49577500  0.37128050  1
  N  846  1  0.35529100  0.55861300  0.54492050  1
  N  851  1  0.22752700  0.44506000  0.52248050  1
  N  852  1  0.39225650  0.60599350  0.38982750  1
  N  859  1  0.05444550  0.97637850  0.69815550  1
  N  862  1  0.06465650  0.05571650  0.87159500  1
  N  867  1  0.06070100  0.93898300  0.85356050  1
  N  868  1  0.05390350  0.09764620  0.72035750  1
  N  875  1  0.83619980  0.80879180  0.03149050  1
  N  878  1  0.90478630  0.79852830  0.20505200  1
  N  883  1  0.79197250  0.80235624  0.18685300  1
  N  884  1  0.95829380  0.80990780  0.05386950  1
  N  891  1  0.88744680  0.02766650  0.36485600  1
  N  894  1  0.80824180  0.95895550  0.53835050  1
  N  899  1  0.92496980  0.07181250  0.52019750  1
  N  900  1  0.76626000  0.90583670  0.38712000  1
  O  8  1  0.30744650  0.57179650  0.96078400  1
  O  15  1  0.52871350  0.34441950  0.01843000  1
  O  36  1  0.13649850  0.55514850  0.29440250  1
  O  43  1  0.68775050  0.33601350  0.35197800  1
  O  64  1  0.29118250  0.72729950  0.62761550  1
  O  71  1  0.52018600  0.17604400  0.68518450  1
  O  92  1  0.45496550  0.33711250  0.79291300  1
  O  95  1  0.43497900  0.12229300  0.85880900  1
  O  108  1  0.75483800  0.40822600  0.12631950  1
  O  111  1  0.56042450  0.42973650  0.19117250  1
  O  124  1  0.52673250  0.10927250  0.45940450  1
  O  127  1  0.74149150  0.30432850  0.52519400  1
  O  140  1  0.37714650  0.59322050  0.78689100  1
  O  143  1  0.38349650  0.80236850  0.85170050  1
  O  156  1  0.08791750  0.48570150  0.12008850  1
  O  159  1  0.29088750  0.48008150  0.18531300  1
  O  172  1  0.27054050  0.77583350  0.45351700  1
  O  175  1  0.06163900  0.57300200  0.51853550  1
  O  728  1  0.98813831  0.89110431  0.92642550  1
  O  735  1  0.20940550  0.66372750  0.98407150  1
  O  756  1  0.81719030  0.87445600  0.26004450  1
  O  763  1  0.36844250  0.65532150  0.31762000  1
  O  784  1  0.97187430  0.04660700  0.59325750  1
  O  791  1  0.20087800  0.49535200  0.65082650  1
  O  812  1  0.13565750  0.65642050  0.75855500  1
  O  815  1  0.11567100  0.44160100  0.82445100  1
  O  828  1  0.43553000  0.72753400  0.09196150  1
  O  831  1  0.24111650  0.74904450  0.15681450  1
  O  844  1  0.20742450  0.42858050  0.42504650  1
  O  847  1  0.42218350  0.62363650  0.49083600  1
  O  860  1  0.05783850  0.91252850  0.75253300  1
  O  863  1  0.06418850  0.12167620  0.81734250  1
  O  876  1  0.76860950  0.80500920  0.08573050  1
  O  879  1  0.97157930  0.79938930  0.15095500  1
  O  892  1  0.95123230  0.09514100  0.41915900  1
  O  895  1  0.74233100  0.89230970  0.48417750  1
