# generated using pymatgen
data_H28C49(N3O2)4
_symmetry_space_group_name_H-M   'P 1'
_cell_length_a   19.88475000
_cell_length_b   19.88475000
_cell_length_c   79.53870000
_cell_angle_alpha   89.99990000
_cell_angle_beta   89.99990000
_cell_angle_gamma   90.00000000
_symmetry_Int_Tables_number   1
_chemical_formula_structural   H28C49(N3O2)4
_chemical_formula_sum   'H112 C196 N48 O32'
_cell_volume   31449.86307066
_cell_formula_units_Z   4
loop_
 _symmetry_equiv_pos_site_id
 _symmetry_equiv_pos_as_xyz
  1  'x, y, z'
loop_
 _atom_site_type_symbol
 _atom_site_label
 _atom_site_symmetry_multiplicity
 _atom_site_fract_x
 _atom_site_fract_y
 _atom_site_fract_z
 _atom_site_occupancy
  C  1  1  0.07388800  0.99030900  0.16574500  1
  C  2  1  0.09554700  0.05153500  0.15857100  1
  C  3  1  0.14451100  0.05203600  0.14579400  1
  C  4  1  0.17530600  0.99186100  0.14002100  1
  C  5  1  0.14822200  0.93068600  0.14633000  1
  C  6  1  0.09943500  0.92967300  0.15907900  1
  C  7  1  0.22883900  0.99077900  0.12623800  1
  C  8  1  0.18425800  0.97721900  0.11098200  1
  C  9  1  0.17007100  0.91112100  0.10518700  1
  C  10  1  0.12589900  0.89915900  0.09171900  1
  C  11  1  0.09284700  0.95312300  0.08372100  1
  C  12  1  0.10289400  0.01882100  0.08994100  1
  C  13  1  0.14671100  0.03018200  0.10349800  1
  C  14  1  0.27160200  0.05430400  0.12465100  1
  C  15  1  0.28426400  0.93897100  0.12936200  1
  C  16  1  0.32304400  0.91218500  0.11593000  1
  C  17  1  0.37488100  0.86538700  0.11871800  1
  C  18  1  0.39207500  0.84557100  0.13522200  1
  C  19  1  0.35810500  0.87611600  0.14879200  1
  C  20  1  0.30611200  0.92246100  0.14587200  1
  C  21  1  0.29756700  0.08708400  0.13913600  1
  C  22  1  0.34240900  0.14149800  0.13795300  1
  C  23  1  0.36510000  0.16449500  0.12212600  1
  C  24  1  0.34258700  0.13036800  0.10762000  1
  C  25  1  0.29766100  0.07604400  0.10892000  1
  C  42  1  0.43569800  0.79290700  0.13837500  1
  C  43  1  0.03331900  0.99044000  0.17987000  1
  C  46  1  0.05378100  0.94155700  0.06970000  1
  C  48  1  0.40734900  0.21960200  0.12057800  1
  C  50  1  0.00720400  0.05963600  0.66377900  1
  C  51  1  0.94545700  0.08095400  0.65683000  1
  C  52  1  0.94412200  0.12816200  0.64365900  1
  C  53  1  0.00397700  0.15754500  0.63725200  1
  C  54  1  0.06553600  0.13079300  0.64342500  1
  C  55  1  0.06740100  0.08373600  0.65656400  1
  C  56  1  0.00409200  0.20857700  0.62288300  1
  C  57  1  0.01407900  0.16073400  0.60807000  1
  C  58  1  0.07885300  0.14255600  0.60206900  1
  C  59  1  0.08775400  0.09315600  0.58961600  1
  C  60  1  0.03208800  0.05825000  0.58287600  1
  C  61  1  0.96753500  0.07329700  0.58926700  1
  C  62  1  0.95910700  0.12272100  0.60171200  1
  C  63  1  0.94132400  0.25243300  0.62133200  1
  C  64  1  0.05748500  0.26318900  0.62511100  1
  C  65  1  0.08527300  0.29821800  0.61117600  1
  C  66  1  0.13274500  0.35005100  0.61327400  1
  C  67  1  0.15216900  0.37111700  0.62952900  1
  C  68  1  0.12107600  0.34061100  0.64352100  1
  C  69  1  0.07417700  0.28861200  0.64129400  1
  C  70  1  0.90986300  0.28049400  0.63575900  1
  C  71  1  0.85612300  0.32612200  0.63449100  1
  C  72  1  0.83255900  0.34758800  0.61861200  1
  C  73  1  0.86552200  0.32308700  0.60413500  1
  C  74  1  0.91916100  0.27735200  0.60552400  1
  C  91  1  0.20440100  0.41578400  0.63218900  1
  C  92  1  0.00807500  0.02109000  0.67823200  1
  C  95  1  0.04130800  0.01347200  0.56971700  1
  C  97  1  0.77775100  0.39020200  0.61698800  1
  C  99  1  0.91816700  0.02613200  0.83189600  1
  C  100  1  0.88672500  0.08143500  0.83979800  1
  C  101  1  0.83643800  0.07155800  0.85197200  1
  C  102  1  0.81374200  0.00628400  0.85650200  1
  C  103  1  0.84915600  0.95136500  0.84926000  1
  C  104  1  0.89941300  0.96077200  0.83706700  1
  C  105  1  0.76189100  0.99464900  0.87038500  1
  C  106  1  0.80889700  0.98415600  0.88533400  1
  C  107  1  0.83180600  0.91939100  0.89027800  1
  C  108  1  0.87818800  0.91067500  0.90344000  1
  C  109  1  0.90476100  0.96693500  0.91193200  1
  C  110  1  0.88609100  0.03188100  0.90655100  1
  C  111  1  0.84016100  0.04001700  0.89329900  1
  C  112  1  0.71132100  0.05179100  0.87268100  1
  C  113  1  0.71356500  0.93649400  0.86700500  1
  C  114  1  0.67786100  0.90530200  0.88037800  1
  C  115  1  0.62959100  0.85498500  0.87748100  1
  C  116  1  0.61316300  0.83511500  0.86092800  1
  C  117  1  0.64509300  0.86844200  0.84744600  1
  C  118  1  0.69344900  0.91852100  0.85046200  1
  C  119  1  0.67995100  0.08200400  0.85852100  1
  C  120  1  0.63111900  0.13253500  0.86024400  1
  C  121  1  0.60997700  0.15401500  0.87633500  1
  C  122  1  0.63680200  0.12109500  0.89054800  1
  C  123  1  0.68555300  0.07039600  0.88869200  1
  C  140  1  0.57026900  0.78184100  0.85764300  1
  C  141  1  0.96356500  0.03708700  0.81893600  1
  C  144  1  0.94535700  0.95831700  0.92578100  1
  C  146  1  0.56749300  0.20862300  0.87832200  1
  C  148  1  0.01630000  0.06235600  0.33491800  1
  C  149  1  0.07232100  0.09283600  0.34271900  1
  C  150  1  0.06352200  0.14273800  0.35503200  1
  C  151  1  0.99867700  0.16576100  0.35984500  1
  C  152  1  0.94304300  0.13110700  0.35270600  1
  C  153  1  0.95135900  0.08138100  0.34032200  1
  C  154  1  0.98824600  0.21739700  0.37385100  1
  C  155  1  0.97710700  0.16998900  0.38871300  1
  C  156  1  0.91207900  0.14915400  0.39399700  1
  C  157  1  0.90296900  0.10153100  0.40688600  1
  C  158  1  0.95881900  0.07111000  0.41477600  1
  C  159  1  0.02378600  0.08812700  0.40895800  1
  C  160  1  0.03242100  0.13581200  0.39612600  1
  C  161  1  0.04655300  0.26668600  0.37615200  1
  C  162  1  0.93102100  0.26693900  0.37055200  1
  C  163  1  0.90115900  0.30361000  0.38395200  1
  C  164  1  0.85167400  0.35283800  0.38111500  1
  C  165  1  0.83149500  0.36934300  0.36459000  1
  C  166  1  0.86368500  0.33653900  0.35107100  1
  C  167  1  0.91282100  0.28717500  0.35402900  1
  C  168  1  0.07654200  0.29845400  0.36201300  1
  C  169  1  0.12831900  0.34598800  0.36373000  1
  C  170  1  0.15134800  0.36554200  0.37980900  1
  C  171  1  0.11893100  0.33814300  0.39403700  1
  C  172  1  0.06710300  0.29053500  0.39219700  1
  C  189  1  0.77886500  0.41309900  0.36136100  1
  C  190  1  0.02624500  0.01778400  0.32176900  1
  C  193  1  0.94975900  0.02867600  0.42842400  1
  C  195  1  0.20636800  0.40763500  0.38175400  1
  C  197  1  0.98991900  0.98839200  0.29418800  1
  C  198  1  0.05130600  0.97706900  0.28578200  1
  C  200  1  0.99438900  0.94657700  0.26031000  1
  C  201  1  0.93099100  0.95591800  0.26817900  1
  C  202  1  0.92991500  0.97724500  0.28517900  1
  C  204  1  0.00336000  0.93690600  0.24278000  1
  C  205  1  0.05636500  0.89796900  0.23582400  1
  C  206  1  0.06809500  0.90230700  0.21831100  1
  C  207  1  0.02916000  0.94464300  0.20797100  1
  C  208  1  0.97588600  0.98047500  0.21547800  1
  C  221  1  0.00181900  0.99662600  0.79232500  1
  C  222  1  0.01302300  0.05676000  0.78336000  1
  C  224  1  0.04923100  0.99621700  0.75889500  1
  C  225  1  0.04049000  0.93406300  0.76739600  1
  C  226  1  0.01640300  0.93543300  0.78416100  1
  C  228  1  0.06045100  0.00217100  0.74134700  1
  C  229  1  0.09836400  0.05502100  0.73398300  1
  C  230  1  0.09481800  0.06367400  0.71634600  1
  C  231  1  0.05414500  0.02189800  0.70628200  1
  C  232  1  0.01948100  0.96882400  0.71420700  1
  C  245  1  0.94931300  0.97951900  0.95533100  1
  C  246  1  0.90361900  0.99022800  0.96855400  1
  C  248  1  0.98939300  0.97330800  0.98922900  1
  C  249  1  0.03840300  0.96377800  0.97645900  1
  C  250  1  0.01717500  0.96682600  0.95948200  1
  C  252  1  0.00412100  0.97116700  0.00663700  1
  C  253  1  0.96431500  0.93582300  0.01853900  1
  C  254  1  0.98449100  0.93719100  0.03560900  1
  C  255  1  0.04232700  0.97299300  0.04072600  1
  C  256  1  0.07872600  0.00809900  0.02836300  1
  C  269  1  0.99619100  0.00735600  0.45606200  1
  C  270  1  0.95067100  0.96165500  0.46345100  1
  C  272  1  0.00612900  0.97035200  0.49007200  1
  C  273  1  0.05335600  0.01661000  0.48336200  1
  C  274  1  0.04794100  0.03371800  0.46618100  1
  C  276  1  0.99987300  0.96159900  0.50757400  1
  C  277  1  0.05118900  0.93357700  0.51776900  1
  C  278  1  0.04872300  0.94605900  0.53529300  1
  C  279  1  0.99719600  0.98614300  0.54234400  1
  C  280  1  0.94550100  0.00858900  0.53164400  1
  C  293  1  0.42849100  0.33020900  0.13168900  1
  C  294  1  0.40062000  0.37418900  0.14364800  1
  C  296  1  0.46757000  0.46625300  0.13375800  1
  C  297  1  0.49903300  0.42402600  0.12171600  1
  C  298  1  0.47902700  0.35568600  0.12093500  1
  C  300  1  0.47330500  0.53726100  0.13390300  1
  C  301  1  0.47258300  0.57633900  0.14884300  1
  C  302  1  0.46324200  0.64667900  0.14738000  1
  C  303  1  0.45408500  0.67734600  0.13152300  1
  C  304  1  0.45677400  0.63618700  0.11716900  1
  C  317  1  0.66747100  0.41294300  0.62813000  1
  C  318  1  0.62300900  0.38532300  0.64001900  1
  C  320  1  0.53101700  0.45113200  0.62961600  1
  C  321  1  0.57379300  0.48266400  0.61771100  1
  C  322  1  0.64231100  0.46310200  0.61721800  1
  C  324  1  0.45991700  0.45556000  0.62929400  1
  C  325  1  0.41935000  0.45523200  0.64398000  1
  C  326  1  0.34938600  0.44424300  0.64212000  1
  C  327  1  0.32052000  0.43305400  0.62612900  1
  C  328  1  0.36311000  0.43528200  0.61203400  1
  C  341  1  0.55078900  0.32131900  0.86769500  1
  C  342  1  0.57889300  0.36286300  0.85524700  1
  C  344  1  0.51852100  0.45894700  0.86536300  1
  C  345  1  0.48726000  0.41934800  0.87799200  1
  C  346  1  0.50385300  0.35008900  0.87892000  1
  C  348  1  0.51643100  0.53012700  0.86476200  1
  C  349  1  0.51758500  0.56734900  0.84952600  1
  C  350  1  0.53137000  0.63709900  0.85036200  1
  C  351  1  0.54439500  0.66903800  0.86589100  1
  C  352  1  0.54068300  0.62985700  0.88057900  1
  C  365  1  0.31764600  0.42728800  0.37057400  1
  C  366  1  0.35952100  0.39986400  0.35809200  1
  C  368  1  0.45489200  0.46152900  0.36817100  1
  C  369  1  0.41483600  0.49248200  0.38075700  1
  C  370  1  0.34583300  0.47488700  0.38172200  1
  C  372  1  0.52610300  0.46416000  0.36770500  1
  C  373  1  0.56395600  0.46326400  0.35256600  1
  C  374  1  0.63381600  0.45011400  0.35358400  1
  C  375  1  0.66525700  0.43743100  0.36919500  1
  C  376  1  0.62543300  0.44081000  0.38377900  1
  H  26  1  0.39899900  0.84484700  0.10856900  1
  H  27  1  0.31246300  0.92513400  0.10378000  1
  H  28  1  0.36922900  0.86322200  0.16095100  1
  H  29  1  0.28339900  0.94331100  0.15614700  1
  H  30  1  0.28424500  0.07115200  0.15088800  1
  H  31  1  0.35893400  0.16368000  0.14881200  1
  H  32  1  0.35876000  0.14467100  0.09592500  1
  H  33  1  0.28485900  0.05172000  0.09806800  1
  H  34  1  0.15177600  0.07844400  0.10774600  1
  H  35  1  0.07857900  0.05895200  0.08462900  1
  H  36  1  0.11892100  0.85075800  0.08766500  1
  H  37  1  0.19178200  0.87030300  0.11077900  1
  H  38  1  0.16590300  0.88547500  0.14210300  1
  H  39  1  0.15839000  0.09754800  0.14095700  1
  H  40  1  0.07770400  0.09650300  0.16299100  1
  H  41  1  0.08424300  0.88420300  0.16378800  1
  H  44  1  0.43780400  0.22295600  0.11070200  1
  H  45  1  0.46346200  0.79300500  0.14878500  1
  H  47  1  0.02156700  0.90333300  0.06963900  1
  H  49  1  0.99768900  0.02510700  0.18116100  1
  H  75  1  0.15368300  0.37167700  0.60283000  1
  H  76  1  0.07214600  0.28516300  0.59918900  1
  H  77  1  0.13357200  0.35464300  0.65551900  1
  H  78  1  0.05285300  0.26865300  0.65186100  1
  H  79  1  0.92617600  0.26805900  0.64753700  1
  H  80  1  0.83476500  0.34400700  0.64531700  1
  H  81  1  0.85071900  0.33821200  0.59239200  1
  H  82  1  0.94251600  0.26278900  0.59467500  1
  H  83  1  0.91158300  0.13067600  0.60619300  1
  H  84  1  0.92597300  0.04833700  0.58492400  1
  H  85  1  0.13548400  0.08324800  0.58545000  1
  H  86  1  0.12101000  0.16461300  0.60690500  1
  H  87  1  0.11047400  0.14739200  0.63876500  1
  H  88  1  0.89826500  0.14184500  0.63899200  1
  H  89  1  0.90079000  0.06415200  0.66167800  1
  H  90  1  0.11317100  0.06878500  0.66113900  1
  H  93  1  0.77428700  0.41990400  0.60697300  1
  H  94  1  0.20287400  0.44662200  0.64204100  1
  H  96  1  0.08531000  0.99033900  0.56842300  1
  H  98  1  0.97369700  0.98545500  0.67993600  1
  H  124  1  0.60670300  0.83284200  0.88759800  1
  H  125  1  0.68722700  0.91874900  0.89255900  1
  H  126  1  0.63412200  0.85599100  0.83525000  1
  H  127  1  0.71371300  0.94213900  0.84024400  1
  H  128  1  0.69343900  0.06815400  0.84661300  1
  H  129  1  0.61194100  0.15426600  0.84960200  1
  H  130  1  0.62212000  0.13462200  0.90242100  1
  H  131  1  0.70242500  0.04731500  0.89936200  1
  H  132  1  0.82871300  0.08798300  0.88966900  1
  H  133  1  0.90542000  0.07375200  0.91229100  1
  H  134  1  0.89145500  0.86289300  0.90693100  1
  H  135  1  0.81487800  0.87721500  0.88429300  1
  H  136  1  0.83780100  0.90311900  0.85267100  1
  H  137  1  0.81644500  0.11331900  0.85753400  1
  H  138  1  0.89945100  0.12969000  0.83660000  1
  H  139  1  0.92187700  0.91925000  0.83192900  1
  H  142  1  0.53651400  0.21096700  0.88811300  1
  H  143  1  0.54492800  0.78071100  0.84686200  1
  H  145  1  0.98476900  0.92764800  0.92516900  1
  H  147  1  0.98711600  0.08114400  0.81818800  1
  H  173  1  0.83032800  0.37635500  0.39124900  1
  H  174  1  0.91492800  0.29417100  0.39610900  1
  H  175  1  0.85098300  0.34751700  0.33889200  1
  H  176  1  0.93562800  0.26632000  0.34377200  1
  H  177  1  0.06157500  0.28618000  0.35010800  1
  H  178  1  0.14952200  0.36567100  0.35307900  1
  H  179  1  0.13352100  0.35170800  0.40591300  1
  H  180  1  0.04447200  0.27328000  0.40288700  1
  H  181  1  0.08041900  0.14580400  0.39226100  1
  H  182  1  0.06564400  0.06628600  0.41410300  1
  H  183  1  0.85501800  0.08986700  0.41057900  1
  H  184  1  0.86997400  0.16819400  0.38839100  1
  H  185  1  0.89509400  0.14279400  0.35630800  1
  H  186  1  0.10577500  0.16211000  0.36049500  1
  H  187  1  0.12027900  0.07985500  0.33930800  1
  H  188  1  0.90944900  0.05953800  0.33521200  1
  H  191  1  0.20985900  0.43704500  0.39182100  1
  H  192  1  0.77814500  0.43877800  0.35062900  1
  H  194  1  0.90797500  0.00157800  0.42948500  1
  H  196  1  0.06860100  0.99119300  0.32128900  1
  H  203  1  0.88465900  0.98664700  0.29085300  1
  H  210  1  0.10772700  0.87639700  0.21323200  1
  H  211  1  0.94687300  0.01299000  0.20869600  1
  H  212  1  0.09637600  0.98787900  0.29131100  1
  H  227  1  0.00725900  0.89096700  0.79023900  1
  H  234  1  0.11976900  0.10325400  0.71095300  1
  H  235  1  0.98813500  0.93782800  0.70763400  1
  H  236  1  0.99995700  0.10243700  0.78823200  1
  H  251  1  0.05171800  0.95970500  0.95012500  1
  H  258  1  0.95683200  0.91121100  0.04427800  1
  H  259  1  0.12106600  0.03471700  0.03136600  1
  H  260  1  0.85395300  0.99985000  0.96623700  1
  H  275  1  0.08008000  0.06897100  0.46130300  1
  H  282  1  0.08757300  0.92979300  0.54265400  1
  H  283  1  0.90823300  0.03948500  0.53599700  1
  H  284  1  0.91090700  0.94288900  0.45682700  1
  H  299  1  0.50016900  0.32519100  0.11204600  1
  H  306  1  0.45795100  0.67464500  0.15809000  1
  H  307  1  0.44723500  0.65532100  0.10547700  1
  H  308  1  0.36280700  0.35895100  0.15149000  1
  H  323  1  0.67313300  0.48406300  0.60837300  1
  H  330  1  0.32042000  0.43931400  0.65267600  1
  H  331  1  0.34538300  0.42431500  0.60028300  1
  H  332  1  0.63796800  0.34768600  0.64794800  1
  H  347  1  0.48320200  0.32132800  0.88823600  1
  H  354  1  0.53670300  0.66337300  0.83939400  1
  H  355  1  0.55240300  0.64982200  0.89205900  1
  H  356  1  0.61447600  0.34513000  0.84708300  1
  H  371  1  0.31685000  0.49535000  0.39102000  1
  H  378  1  0.66060100  0.44495000  0.34268600  1
  H  379  1  0.64501300  0.42926800  0.39531100  1
  H  380  1  0.34225900  0.36393300  0.34996300  1
  N  199  1  0.05096900  0.95838700  0.26944600  1
  N  209  1  0.96620000  0.97622000  0.23229500  1
  N  213  1  0.09667200  0.85678700  0.24628800  1
  N  214  1  0.87100300  0.94422500  0.25906000  1
  N  219  1  0.05001400  0.95279300  0.19230400  1
  N  220  1  0.98654400  0.01861900  0.30902100  1
  N  223  1  0.03434700  0.05401800  0.76723800  1
  N  233  1  0.02289500  0.96215800  0.73112200  1
  N  237  1  0.13759500  0.09827000  0.74417600  1
  N  238  1  0.05522000  0.87286100  0.75909000  1
  N  243  1  0.04577300  0.04025400  0.69043100  1
  N  244  1  0.96894100  0.99466700  0.80681900  1
  N  247  1  0.92481900  0.98639600  0.98467800  1
  N  257  1  0.05888300  0.00571100  0.01211100  1
  N  261  1  0.90781700  0.89806100  0.01321600  1
  N  262  1  0.10596100  0.94924700  0.98075800  1
  N  267  1  0.06622900  0.97496700  0.05625100  1
  N  268  1  0.92531700  0.98271700  0.93984800  1
  N  271  1  0.95622500  0.94640900  0.48002300  1
  N  281  1  0.94989400  0.99769500  0.51490200  1
  N  285  1  0.10407300  0.89666200  0.51023100  1
  N  286  1  0.10066900  0.04891000  0.49396600  1
  N  291  1  0.99898800  0.01352200  0.55752400  1
  N  292  1  0.99091900  0.03300100  0.44079400  1
  N  295  1  0.41973500  0.43940300  0.14395900  1
  N  305  1  0.46486500  0.56898100  0.11890100  1
  N  309  1  0.47879100  0.54474100  0.16472200  1
  N  310  1  0.54886100  0.45061500  0.11088800  1
  N  315  1  0.42914500  0.73864900  0.12979100  1
  N  316  1  0.40097200  0.26968000  0.13063800  1
  N  319  1  0.55760300  0.40386500  0.64002400  1
  N  329  1  0.42992700  0.44503800  0.61414800  1
  N  333  1  0.44922600  0.46347900  0.66000800  1
  N  334  1  0.54745400  0.53195700  0.60669500  1
  N  339  1  0.25977000  0.40687700  0.62420300  1
  N  340  1  0.72787300  0.38499700  0.62716000  1
  N  343  1  0.56307700  0.42887700  0.85480800  1
  N  353  1  0.52847100  0.56306200  0.87944300  1
  N  357  1  0.50740700  0.53443300  0.83394300  1
  N  358  1  0.44095900  0.44936100  0.88922600  1
  N  363  1  0.57174700  0.72957700  0.86711600  1
  N  364  1  0.57573100  0.25989000  0.86875300  1
  N  367  1  0.42536300  0.41651700  0.35763700  1
  N  377  1  0.55859000  0.45244300  0.38246500  1
  N  381  1  0.53154900  0.47314700  0.33690500  1
  N  382  1  0.44420400  0.53943200  0.39193100  1
  N  387  1  0.72591700  0.41043000  0.37057400  1
  N  388  1  0.25651900  0.40140700  0.37171500  1
  O  215  1  0.15732900  0.87449100  0.24586000  1
  O  216  1  0.83548700  0.99637300  0.25820300  1
  O  217  1  0.83675900  0.89824100  0.26569700  1
  O  218  1  0.09293600  0.79604900  0.24204100  1
  O  239  1  0.11817500  0.15824900  0.74302100  1
  O  240  1  0.00421100  0.83576700  0.75812200  1
  O  241  1  0.10098500  0.84113300  0.76655200  1
  O  242  1  0.19869300  0.09563400  0.74021000  1
  O  263  1  0.85476900  0.91844100  0.02012000  1
  O  264  1  0.14540800  0.99302900  0.97505900  1
  O  265  1  0.12376000  0.89265900  0.97532000  1
  O  266  1  0.91492600  0.83656700  0.01638600  1
  O  287  1  0.10460200  0.83712900  0.51550300  1
  O  288  1  0.08953000  0.11100500  0.49490300  1
  O  289  1  0.15985200  0.04027200  0.48887900  1
  O  290  1  0.16048300  0.92237000  0.51329500  1
  O  311  1  0.42733800  0.55397500  0.17360700  1
  O  312  1  0.53207100  0.44501700  0.09572300  1
  O  313  1  0.60427300  0.42142500  0.11297200  1
  O  314  1  0.52912400  0.56631900  0.17259500  1
  O  335  1  0.44016400  0.41263100  0.66911800  1
  O  336  1  0.55417100  0.51484100  0.59158300  1
  O  337  1  0.57603400  0.58767100  0.60880700  1
  O  338  1  0.42581700  0.51400900  0.66746600  1
  O  359  1  0.55814900  0.53944100  0.82460000  1
  O  360  1  0.46024400  0.44405600  0.90421000  1
  O  361  1  0.38380200  0.42292900  0.88793700  1
  O  362  1  0.45746900  0.55813400  0.82629700  1
  O  383  1  0.53743300  0.42248100  0.32757000  1
  O  384  1  0.43918700  0.52040200  0.40694200  1
  O  385  1  0.41699800  0.59619400  0.39056500  1
  O  386  1  0.55510500  0.52331500  0.32932400  1
