# generated using pymatgen
data_H36C43N12
_symmetry_space_group_name_H-M   'P 1'
_cell_length_a   26.20410000
_cell_length_b   30.25790000
_cell_length_c   31.06030000
_cell_angle_alpha   90.00000000
_cell_angle_beta   90.00000000
_cell_angle_gamma   90.00000000
_symmetry_Int_Tables_number   1
_chemical_formula_structural   H36C43N12
_chemical_formula_sum   'H216 C258 N72'
_cell_volume   24627.12288564
_cell_formula_units_Z   6
loop_
 _symmetry_equiv_pos_site_id
 _symmetry_equiv_pos_as_xyz
  1  'x, y, z'
loop_
 _atom_site_type_symbol
 _atom_site_label
 _atom_site_symmetry_multiplicity
 _atom_site_fract_x
 _atom_site_fract_y
 _atom_site_fract_z
 _atom_site_occupancy
  H  7  1  0.91056400  0.90389500  0.88052900  1
  H  9  1  0.88943100  0.99195900  0.90451000  1
  H  12  1  0.77756900  0.90430200  0.90418100  1
  H  19  1  0.74006000  0.77695100  0.79214600  1
  H  21  1  0.87495900  0.38561200  0.95290500  1
  H  22  1  0.85885200  0.33004600  0.96505400  1
  H  23  1  0.78275300  0.40697100  0.95069500  1
  H  24  1  0.75952200  0.35427800  0.96629900  1
  H  26  1  0.93303100  0.19551900  0.98208400  1
  H  27  1  0.99180600  0.14036700  0.95673900  1
  H  30  1  0.94552400  0.05158300  0.92843900  1
  H  33  1  0.60198200  0.85533700  0.79903500  1
  H  35  1  0.53458000  0.84669200  0.74941600  1
  H  36  1  0.40254800  0.79722800  0.77079200  1
  H  37  1  0.36443200  0.18618600  0.99171800  1
  H  39  1  0.24695400  0.89914000  0.86922900  1
  H  41  1  0.14731700  0.96436400  0.93986600  1
  H  43  1  0.15456400  0.93113700  0.87078400  1
  H  44  1  0.08860400  0.98755200  0.99215400  1
  H  51  1  0.29255700  0.24034100  0.98413600  1
  H  54  1  0.09484000  0.06735400  0.85555800  1
  H  58  1  0.03616200  0.09244500  0.90968000  1
  H  60  1  0.82042600  0.80835000  0.74144800  1
  H  61  1  0.93277000  0.78885400  0.72335800  1
  H  63  1  0.88878300  0.78706300  0.67983200  1
  H  65  1  0.69903900  0.78276900  0.71762100  1
  H  66  1  0.80182700  0.70776200  0.74054800  1
  H  68  1  0.84875600  0.69237900  0.70286900  1
  H  69  1  0.80637200  0.73638800  0.69073200  1
  H  70  1  0.92622600  0.74008900  0.69293200  1
  H  73  1  0.63116200  0.77383700  0.66749200  1
  H  76  1  0.53177900  0.89551200  0.68365400  1
  H  82  1  0.47983300  0.77204000  0.73822400  1
  H  84  1  0.33934800  0.92215600  0.72329200  1
  H  86  1  0.37680400  0.88153900  0.66509300  1
  H  87  1  0.61095800  0.86740700  0.54565200  1
  H  96  1  0.45366200  0.85723700  0.63313600  1
  H  97  1  0.55645100  0.95576400  0.63990700  1
  H  101  1  0.48531300  0.79046800  0.59081900  1
  H  102  1  0.58785500  0.80664600  0.59006200  1
  H  103  1  0.55865700  0.71768300  0.68860200  1
  H  108  1  0.48054300  0.72588200  0.54764400  1
  H  109  1  0.55457400  0.65326400  0.64496500  1
  H  114  1  0.51840700  0.51798700  0.56645600  1
  H  116  1  0.52734900  0.59447000  0.59680400  1
  H  117  1  0.61456000  0.00528800  0.59562200  1
  H  121  1  0.62401600  0.08225300  0.56747400  1
  H  125  1  0.24445400  0.90598500  0.67866300  1
  H  128  1  0.31706500  0.97201500  0.63417300  1
  H  129  1  0.28071200  0.98246800  0.58760500  1
  H  130  1  0.29174100  0.92714100  0.60407000  1
  H  132  1  0.18554300  0.97313000  0.58982000  1
  H  133  1  0.15593000  0.95561200  0.63775900  1
  H  134  1  0.19069900  0.91709500  0.60604400  1
  H  135  1  0.69897200  0.31781500  0.26954700  1
  H  136  1  0.61151900  0.94785100  0.34881200  1
  H  137  1  0.61972000  0.98964700  0.30920200  1
  H  138  1  0.57054800  0.94971000  0.30391500  1
  H  146  1  0.48354600  0.56156600  0.37980000  1
  H  147  1  0.46571000  0.65866400  0.35860900  1
  H  148  1  0.55847700  0.50187900  0.40246600  1
  H  150  1  0.58202300  0.56676100  0.32547300  1
  H  151  1  0.56208000  0.60631100  0.28746300  1
  H  152  1  0.52241800  0.56026400  0.29891900  1
  H  154  1  0.49373600  0.66076300  0.30712800  1
  H  155  1  0.44958200  0.61815600  0.31946600  1
  H  162  1  0.55682100  0.44864300  0.34596600  1
  H  164  1  0.48068400  0.37707200  0.44289700  1
  H  168  1  0.59009800  0.29550600  0.40117800  1
  H  169  1  0.48625200  0.31207700  0.40040200  1
  H  172  1  0.63311000  0.32701500  0.32182200  1
  H  173  1  0.56157600  0.38385000  0.30299400  1
  H  179  1  0.48034100  0.33115300  0.25480100  1
  H  182  1  0.61415200  0.23485100  0.44543000  1
  H  183  1  0.60631700  0.04835800  0.37648100  1
  H  184  1  0.45547100  0.24330200  0.35808100  1
  H  189  1  0.49600300  0.05017900  0.34212500  1
  H  190  1  0.55998500  0.14629200  0.35120700  1
  H  199  1  0.54234600  0.10960100  0.41913300  1
  H  201  1  0.53356500  0.20638900  0.30807800  1
  H  202  1  0.50257400  0.01183500  0.29985900  1
  H  204  1  0.54742200  0.05542400  0.30516800  1
  H  205  1  0.38007400  0.21782400  0.32503900  1
  H  206  1  0.30549400  0.20387400  0.28471100  1
  H  208  1  0.23099100  0.15725100  0.26193600  1
  H  210  1  0.93796300  0.90916700  0.00936200  1
  H  211  1  0.99526400  0.96576900  0.03394000  1
  H  214  1  0.73359600  0.32552500  0.18958300  1
  H  215  1  0.90014300  0.36042500  0.00331000  1
  H  220  1  0.80061600  0.37476500  0.07141600  1
  H  221  1  0.74513200  0.40198800  0.00124900  1
  H  224  1  0.76839700  0.21138900  0.17450900  1
  H  226  1  0.86694900  0.24362200  0.02745000  1
  H  233  1  0.88708100  0.11043700  0.08611300  1
  H  236  1  0.94478200  0.05636500  0.06152500  1
  H  241  1  0.53284400  0.25465100  0.24260200  1
  H  242  1  0.40388000  0.30540500  0.22146300  1
  H  243  1  0.59807400  0.24555600  0.19121800  1
  H  246  1  0.38772900  0.17285700  0.04715700  1
  H  247  1  0.33639000  0.23582300  0.11003100  1
  H  248  1  0.26528700  0.26416200  0.03434900  1
  H  254  1  0.25123900  0.20840500  0.02083400  1
  H  259  1  0.32868900  0.15045700  0.02935300  1
  H  262  1  0.21702300  0.12800000  0.09419700  1
  H  263  1  0.08250600  0.12380900  0.00076300  1
  H  270  1  0.13931800  0.14877800  0.05409200  1
  H  271  1  0.09753400  0.04212500  0.13377800  1
  H  272  1  0.03841000  0.01720200  0.08001500  1
  H  280  1  0.83424000  0.87084600  0.39759700  1
  H  282  1  0.81310700  0.95890980  0.42157800  1
  H  285  1  0.70124500  0.87125300  0.42124900  1
  H  292  1  0.66373600  0.74390200  0.30921400  1
  H  294  1  0.79863500  0.35256300  0.46997300  1
  H  295  1  0.78252800  0.29699700  0.48212200  1
  H  296  1  0.70642900  0.37392200  0.46776300  1
  H  297  1  0.68319800  0.32122900  0.48336700  1
  H  299  1  0.85670700  0.16247000  0.49915200  1
  H  300  1  0.91548210  0.10731800  0.47380700  1
  H  303  1  0.86920000  0.01853400  0.44550700  1
  H  306  1  0.52565800  0.82228800  0.31610300  1
  H  308  1  0.45825600  0.81364300  0.26648400  1
  H  309  1  0.32622400  0.76417900  0.28786000  1
  H  310  1  0.28810800  0.15313700  0.50878600  1
  H  312  1  0.17063000  0.86609100  0.38629700  1
  H  314  1  0.07099300  0.93131480  0.45693400  1
  H  316  1  0.07824000  0.89808800  0.38785200  1
  H  317  1  0.01228000  0.95450280  0.50922200  1
  H  324  1  0.21623300  0.20729200  0.50120400  1
  H  327  1  0.01851600  0.03430500  0.37262600  1
  H  331  1  0.95983810  0.05939600  0.42674800  1
  H  333  1  0.74410200  0.77530100  0.25851600  1
  H  334  1  0.85644600  0.75580500  0.24042600  1
  H  336  1  0.81245900  0.75401400  0.19690000  1
  H  338  1  0.62271500  0.74972000  0.23468900  1
  H  339  1  0.72550300  0.67471300  0.25761600  1
  H  341  1  0.77243200  0.65933000  0.21993700  1
  H  342  1  0.73004800  0.70333900  0.20780000  1
  H  343  1  0.84990200  0.70704000  0.21000000  1
  H  346  1  0.55483800  0.74078800  0.18456000  1
  H  349  1  0.45545500  0.86246300  0.20072200  1
  H  355  1  0.40350900  0.73899100  0.25529200  1
  H  357  1  0.26302400  0.88910700  0.24036000  1
  H  359  1  0.30048000  0.84849000  0.18216100  1
  H  360  1  0.53463400  0.83435800  0.06272000  1
  H  369  1  0.37733800  0.82418800  0.15020400  1
  H  370  1  0.48012700  0.92271480  0.15697500  1
  H  374  1  0.40898900  0.75741900  0.10788700  1
  H  375  1  0.51153100  0.77359700  0.10713000  1
  H  376  1  0.48233300  0.68463400  0.20567000  1
  H  381  1  0.40421900  0.69283300  0.06471200  1
  H  382  1  0.47825000  0.62021500  0.16203300  1
  H  387  1  0.44208300  0.48493800  0.08352400  1
  H  389  1  0.45102500  0.56142100  0.11387200  1
  H  390  1  0.53823600  0.97223880  0.11269000  1
  H  394  1  0.54769200  0.04920400  0.08454200  1
  H  398  1  0.16813000  0.87293600  0.19573100  1
  H  401  1  0.24074100  0.93896580  0.15124100  1
  H  402  1  0.20438800  0.94941880  0.10467300  1
  H  403  1  0.21541700  0.89409200  0.12113800  1
  H  405  1  0.10921900  0.94008080  0.10688800  1
  H  406  1  0.07960600  0.92256280  0.15482700  1
  H  407  1  0.11437500  0.88404600  0.12311200  1
  H  408  1  0.62264800  0.28476600  0.78661500  1
  H  409  1  0.53519500  0.91480180  0.86588000  1
  H  410  1  0.54339600  0.95659780  0.82627000  1
  H  411  1  0.49422400  0.91666080  0.82098300  1
  H  419  1  0.40722200  0.52851700  0.89686800  1
  H  420  1  0.38938600  0.62561500  0.87567700  1
  H  421  1  0.48215300  0.46883000  0.91953440  1
  H  423  1  0.50569900  0.53371200  0.84254100  1
  H  424  1  0.48575600  0.57326200  0.80453100  1
  H  425  1  0.44609400  0.52721500  0.81598700  1
  H  427  1  0.41741200  0.62771400  0.82419600  1
  H  428  1  0.37325800  0.58510700  0.83653400  1
  H  435  1  0.48049700  0.41559400  0.86303400  1
  H  437  1  0.40436000  0.34402300  0.95996540  1
  H  441  1  0.51377400  0.26245700  0.91824640  1
  H  442  1  0.40992800  0.27902800  0.91747040  1
  H  445  1  0.55678600  0.29396600  0.83889000  1
  H  446  1  0.48525200  0.35080100  0.82006200  1
  H  452  1  0.40401700  0.29810400  0.77186900  1
  H  455  1  0.53782800  0.20180200  0.96249840  1
  H  456  1  0.52999300  0.01530900  0.89354900  1
  H  457  1  0.37914700  0.21025300  0.87514900  1
  H  462  1  0.41967900  0.01713000  0.85919300  1
  H  463  1  0.48366100  0.11324300  0.86827500  1
  H  472  1  0.46602200  0.07655200  0.93620140  1
  H  474  1  0.45724100  0.17334000  0.82514600  1
  H  475  1  0.42625000  0.97878580  0.81692700  1
  H  477  1  0.47109800  0.02237500  0.82223600  1
  H  478  1  0.30375000  0.18477500  0.84210700  1
  H  479  1  0.22917000  0.17082500  0.80177900  1
  H  481  1  0.15466700  0.12420200  0.77900400  1
  H  483  1  0.86163900  0.87611800  0.52643000  1
  H  484  1  0.91894010  0.93271980  0.55100800  1
  H  487  1  0.65727200  0.29247600  0.70665100  1
  H  488  1  0.82381900  0.32737600  0.52037800  1
  H  493  1  0.72429200  0.34171600  0.58848400  1
  H  494  1  0.66880800  0.36893900  0.51831700  1
  H  497  1  0.69207300  0.17834000  0.69157700  1
  H  499  1  0.79062500  0.21057300  0.54451800  1
  H  506  1  0.81075700  0.07738800  0.60318100  1
  H  509  1  0.86845800  0.02331600  0.57859300  1
  H  514  1  0.45652000  0.22160200  0.75967000  1
  H  515  1  0.32755600  0.27235600  0.73853100  1
  H  516  1  0.52175000  0.21250700  0.70828600  1
  H  519  1  0.31140500  0.13980800  0.56422500  1
  H  520  1  0.26006600  0.20277400  0.62709900  1
  H  521  1  0.18896300  0.23111300  0.55141700  1
  H  527  1  0.17491500  0.17535600  0.53790200  1
  H  532  1  0.25236500  0.11740800  0.54642100  1
  H  535  1  0.14069900  0.09495100  0.61126500  1
  H  536  1  0.00618200  0.09076000  0.51783100  1
  H  543  1  0.06299400  0.11572900  0.57116000  1
  H  544  1  0.02121000  0.00907600  0.65084600  1
  H  545  1  0.96208610  0.98415280  0.59708300  1
  C  1  1  0.93918500  0.93871700  0.98955100  1
  C  2  1  0.90899600  0.94490800  0.95231500  1
  C  4  1  0.84329100  0.87025500  0.88094600  1
  C  6  1  0.88105900  0.89604600  0.89932300  1
  C  8  1  0.91129300  0.98601100  0.93123300  1
  C  11  1  0.79071600  0.87990700  0.88430500  1
  C  13  1  0.82391400  0.81706000  0.82567400  1
  C  15  1  0.84075900  0.78612000  0.75782000  1
  C  17  1  0.73412500  0.80734600  0.80322400  1
  C  18  1  0.77103100  0.82698900  0.82899700  1
  C  20  1  0.86634400  0.36258000  0.97897300  1
  C  25  1  0.77459700  0.38565500  0.97822000  1
  C  28  1  0.97660200  0.01733800  0.98253300  1
  C  29  1  0.94452500  0.02282400  0.94574500  1
  C  31  1  0.96907200  0.13296700  0.98236100  1
  C  32  1  0.60782500  0.83597800  0.77243900  1
  C  34  1  0.65628100  0.81772700  0.76448700  1
  C  38  1  0.24607600  0.91154100  0.83860600  1
  C  40  1  0.12393900  0.99038000  0.93253100  1
  C  42  1  0.17055000  0.95521600  0.85358800  1
  C  46  1  0.28376100  0.91242700  0.76846400  1
  C  48  1  0.20900900  0.94276600  0.82575000  1
  C  50  1  0.24578200  0.94312900  0.75501300  1
  C  52  1  0.12564400  0.01433300  0.89158600  1
  C  53  1  0.09401200  0.05159300  0.88468500  1
  C  55  1  0.05583100  0.04519800  0.95731800  1
  C  56  1  0.08938700  0.00864600  0.96381900  1
  C  57  1  0.05971200  0.06667300  0.91683700  1
  C  59  1  0.01726800  0.05531800  0.99333700  1
  C  62  1  0.90526100  0.76806200  0.70637300  1
  C  67  1  0.82832800  0.72058600  0.71643000  1
  C  71  1  0.66351100  0.79397900  0.72580400  1
  C  72  1  0.62308000  0.78867400  0.69626800  1
  C  74  1  0.56754900  0.82999900  0.74303700  1
  C  75  1  0.39822800  0.85856200  0.68110300  1
  C  77  1  0.41279400  0.80975500  0.74142600  1
  C  78  1  0.57312000  0.80533000  0.70422500  1
  C  79  1  0.53263000  0.80594200  0.66833500  1
  C  80  1  0.47817300  0.81521400  0.68427700  1
  C  81  1  0.45847800  0.79498500  0.72209900  1
  C  85  1  0.38357000  0.84372100  0.72241600  1
  C  88  1  0.60705400  0.99039200  0.56611200  1
  C  89  1  0.55362300  0.84394300  0.64068600  1
  C  90  1  0.54929200  0.88848600  0.65507100  1
  C  91  1  0.56433500  0.92443500  0.62946900  1
  C  92  1  0.58667500  0.91732600  0.58875200  1
  C  93  1  0.59495300  0.87352900  0.57512300  1
  C  94  1  0.58019200  0.83767300  0.60121800  1
  C  95  1  0.44409100  0.84407000  0.66232100  1
  C  99  1  0.52576100  0.76239900  0.64356400  1
  C  100  1  0.49985300  0.76185200  0.60327200  1
  C  104  1  0.54255300  0.72054300  0.65880600  1
  C  105  1  0.53933900  0.68196900  0.63331300  1
  C  106  1  0.51751800  0.68315900  0.59166800  1
  C  107  1  0.49697900  0.72364200  0.57748000  1
  C  112  1  0.52078500  0.53254200  0.53682000  1
  C  113  1  0.52258200  0.57897900  0.53222000  1
  C  115  1  0.52263200  0.60727900  0.56760200  1
  C  119  1  0.61390000  0.06956200  0.53818500  1
  C  120  1  0.60541700  0.02389500  0.53224500  1
  C  122  1  0.32439200  0.89957800  0.74283200  1
  C  124  1  0.24129000  0.93882300  0.67969800  1
  C  127  1  0.28421100  0.96070200  0.61549300  1
  C  131  1  0.18970300  0.95124100  0.61755000  1
  C  139  1  0.59150300  0.97014900  0.32687400  1
  C  140  1  0.52836400  0.52220400  0.46037500  1
  C  142  1  0.52899400  0.56896200  0.45531400  1
  C  144  1  0.51058800  0.58456100  0.38268500  1
  C  149  1  0.54872700  0.58433700  0.31297200  1
  C  153  1  0.48062300  0.63835900  0.33237300  1
  C  156  1  0.51964800  0.41911700  0.39945500  1
  C  157  1  0.54216300  0.41991000  0.35804500  1
  C  158  1  0.54540700  0.38118600  0.33277800  1
  C  159  1  0.52784100  0.33958100  0.34799700  1
  C  160  1  0.50141800  0.34050300  0.38804500  1
  C  161  1  0.49810500  0.37894900  0.41343800  1
  C  165  1  0.53632100  0.49256600  0.42675400  1
  C  166  1  0.55492500  0.25807100  0.35112000  1
  C  167  1  0.58197000  0.26444300  0.39034700  1
  C  170  1  0.66311700  0.30646900  0.26267900  1
  C  171  1  0.62389400  0.31202800  0.29336800  1
  C  174  1  0.53385900  0.29591600  0.32335200  1
  C  175  1  0.47899400  0.28713500  0.30807500  1
  C  176  1  0.44533100  0.25751000  0.32951100  1
  C  177  1  0.45898900  0.30805200  0.27072800  1
  C  178  1  0.57346400  0.29582700  0.28672300  1
  C  180  1  0.41372200  0.29299800  0.25098000  1
  C  181  1  0.38455100  0.25879900  0.26963000  1
  C  185  1  0.55074200  0.21351800  0.33677400  1
  C  186  1  0.56596900  0.17767300  0.36238200  1
  C  187  1  0.58725900  0.18483800  0.40353400  1
  C  188  1  0.59718900  0.22864400  0.41635800  1
  C  192  1  0.58910200  0.08413300  0.46540800  1
  C  194  1  0.58238600  0.03807900  0.45854400  1
  C  196  1  0.57936400  0.02627100  0.38358300  1
  C  198  1  0.57394100  0.11552700  0.43596500  1
  C  200  1  0.39977300  0.24277300  0.31035400  1
  C  203  1  0.52385300  0.03184000  0.32296500  1
  C  207  1  0.31151200  0.21297200  0.25439200  1
  C  209  1  0.97264600  0.97232300  0.00804900  1
  C  213  1  0.72823000  0.29427700  0.18075200  1
  C  216  1  0.81215100  0.35673700  0.04648400  1
  C  218  1  0.80426200  0.28783200  0.08237500  1
  C  222  1  0.75924600  0.27640100  0.14920300  1
  C  225  1  0.82258800  0.24368200  0.08327700  1
  C  228  1  0.85541000  0.22574300  0.05242700  1
  C  230  1  0.93464000  0.16566300  0.00127200  1
  C  231  1  0.90401500  0.15799200  0.03807800  1
  C  232  1  0.90810900  0.11704700  0.05903000  1
  C  234  1  0.97438200  0.09174100  0.00755600  1
  C  235  1  0.94237500  0.08504600  0.04418500  1
  C  237  1  0.77726200  0.23249800  0.14992800  1
  C  238  1  0.65411400  0.28268000  0.22430600  1
  C  239  1  0.60526800  0.26466100  0.21776400  1
  C  240  1  0.56622400  0.27102700  0.24818500  1
  C  245  1  0.35304000  0.17977500  0.02880800  1
  C  249  1  0.28247900  0.19351000  0.22218700  1
  C  252  1  0.24197700  0.16406600  0.23106700  1
  C  253  1  0.28111200  0.23361200  0.02115200  1
  C  255  1  0.27019400  0.17976800  0.14643800  1
  C  257  1  0.31676000  0.21594400  0.09069500  1
  C  260  1  0.22976900  0.14989100  0.15575500  1
  C  261  1  0.20223600  0.12837600  0.12372400  1
  C  264  1  0.05462100  0.06681600  0.03370500  1
  C  265  1  0.08535700  0.10535100  0.02826100  1
  C  266  1  0.11951200  0.12018000  0.05969000  1
  C  267  1  0.12580500  0.09673200  0.09854100  1
  C  268  1  0.09500400  0.05898600  0.10531100  1
  C  269  1  0.06040300  0.04410700  0.07337300  1
  C  274  1  0.86286100  0.90566780  0.50661900  1
  C  275  1  0.83267200  0.91185880  0.46938300  1
  C  277  1  0.76696700  0.83720600  0.39801400  1
  C  279  1  0.80473500  0.86299700  0.41639100  1
  C  281  1  0.83496900  0.95296180  0.44830100  1
  C  284  1  0.71439200  0.84685800  0.40137300  1
  C  286  1  0.74759000  0.78401100  0.34274200  1
  C  288  1  0.76443500  0.75307100  0.27488800  1
  C  290  1  0.65780100  0.77429700  0.32029200  1
  C  291  1  0.69470700  0.79394000  0.34606500  1
  C  293  1  0.79002000  0.32953100  0.49604100  1
  C  298  1  0.69827300  0.35260600  0.49528800  1
  C  301  1  0.90027810  0.98428880  0.49960100  1
  C  302  1  0.86820100  0.98977480  0.46281300  1
  C  304  1  0.89274800  0.09991800  0.49942900  1
  C  305  1  0.53150100  0.80292900  0.28950700  1
  C  307  1  0.57995700  0.78467800  0.28155500  1
  C  311  1  0.16975200  0.87849200  0.35567400  1
  C  313  1  0.04761500  0.95733080  0.44959900  1
  C  315  1  0.09422600  0.92216680  0.37065600  1
  C  319  1  0.20743700  0.87937800  0.28553200  1
  C  321  1  0.13268500  0.90971680  0.34281800  1
  C  323  1  0.16945800  0.91007980  0.27208100  1
  C  325  1  0.04932000  0.98128380  0.40865400  1
  C  326  1  0.01768800  0.01854400  0.40175300  1
  C  328  1  0.97950710  0.01214900  0.47438600  1
  C  329  1  0.01306300  0.97559680  0.48088700  1
  C  330  1  0.98338810  0.03362400  0.43390500  1
  C  332  1  0.94094410  0.02226900  0.51040500  1
  C  335  1  0.82893700  0.73501300  0.22344100  1
  C  340  1  0.75200400  0.68753700  0.23349800  1
  C  344  1  0.58718700  0.76093000  0.24287200  1
  C  345  1  0.54675600  0.75562500  0.21333600  1
  C  347  1  0.49122500  0.79695000  0.26010500  1
  C  348  1  0.32190400  0.82551300  0.19817100  1
  C  350  1  0.33647000  0.77670600  0.25849400  1
  C  351  1  0.49679600  0.77228100  0.22129300  1
  C  352  1  0.45630600  0.77289300  0.18540300  1
  C  353  1  0.40184900  0.78216500  0.20134500  1
  C  354  1  0.38215400  0.76193600  0.23916700  1
  C  358  1  0.30724600  0.81067200  0.23948400  1
  C  361  1  0.53073000  0.95734280  0.08318000  1
  C  362  1  0.47729900  0.81089400  0.15775400  1
  C  363  1  0.47296800  0.85543700  0.17213900  1
  C  364  1  0.48801100  0.89138600  0.14653700  1
  C  365  1  0.51035100  0.88427700  0.10582000  1
  C  366  1  0.51862900  0.84048000  0.09219100  1
  C  367  1  0.50386800  0.80462400  0.11828600  1
  C  368  1  0.36776700  0.81102100  0.17938900  1
  C  372  1  0.44943700  0.72935000  0.16063200  1
  C  373  1  0.42352900  0.72880300  0.12034000  1
  C  377  1  0.46622900  0.68749400  0.17587400  1
  C  378  1  0.46301500  0.64892000  0.15038100  1
  C  379  1  0.44119400  0.65011000  0.10873600  1
  C  380  1  0.42065500  0.69059300  0.09454800  1
  C  385  1  0.44446100  0.49949300  0.05388800  1
  C  386  1  0.44625800  0.54593000  0.04928800  1
  C  388  1  0.44630800  0.57423000  0.08467000  1
  C  392  1  0.53757600  0.03651300  0.05525300  1
  C  393  1  0.52909300  0.99084578  0.04931300  1
  C  395  1  0.24806800  0.86652900  0.25990000  1
  C  397  1  0.16496600  0.90577380  0.19676600  1
  C  400  1  0.20788700  0.92765280  0.13256100  1
  C  404  1  0.11337900  0.91819180  0.13461800  1
  C  412  1  0.51517900  0.93709980  0.84394200  1
  C  413  1  0.45204000  0.48915500  0.97744340  1
  C  415  1  0.45267000  0.53591300  0.97238240  1
  C  417  1  0.43426400  0.55151200  0.89975300  1
  C  422  1  0.47240300  0.55128800  0.83004000  1
  C  426  1  0.40429900  0.60531000  0.84944100  1
  C  429  1  0.44332400  0.38606800  0.91652340  1
  C  430  1  0.46583900  0.38686100  0.87511300  1
  C  431  1  0.46908300  0.34813700  0.84984600  1
  C  432  1  0.45151700  0.30653200  0.86506500  1
  C  433  1  0.42509400  0.30745400  0.90511340  1
  C  434  1  0.42178100  0.34590000  0.93050640  1
  C  438  1  0.45999700  0.45951700  0.94382240  1
  C  439  1  0.47860100  0.22502200  0.86818800  1
  C  440  1  0.50564600  0.23139400  0.90741540  1
  C  443  1  0.58679300  0.27342000  0.77974700  1
  C  444  1  0.54757000  0.27897900  0.81043600  1
  C  447  1  0.45753500  0.26286700  0.84042000  1
  C  448  1  0.40267000  0.25408600  0.82514300  1
  C  449  1  0.36900700  0.22446100  0.84657900  1
  C  450  1  0.38266500  0.27500300  0.78779600  1
  C  451  1  0.49714000  0.26277800  0.80379100  1
  C  453  1  0.33739800  0.25994900  0.76804800  1
  C  454  1  0.30822700  0.22575000  0.78669800  1
  C  458  1  0.47441800  0.18046900  0.85384200  1
  C  459  1  0.48964500  0.14462400  0.87945000  1
  C  460  1  0.51093500  0.15178900  0.92060240  1
  C  461  1  0.52086500  0.19559500  0.93342640  1
  C  465  1  0.51277800  0.05108400  0.98247640  1
  C  467  1  0.50606200  0.00503000  0.97561240  1
  C  469  1  0.50304000  0.99322178  0.90065140  1
  C  471  1  0.49761700  0.08247800  0.95303340  1
  C  473  1  0.32344900  0.20972400  0.82742200  1
  C  476  1  0.44752900  0.99879078  0.84003300  1
  C  480  1  0.23518800  0.17992300  0.77146000  1
  C  482  1  0.89632200  0.93927380  0.52511700  1
  C  486  1  0.65190600  0.26122800  0.69782000  1
  C  489  1  0.73582700  0.32368800  0.56355200  1
  C  491  1  0.72793800  0.25478300  0.59944300  1
  C  495  1  0.68292200  0.24335200  0.66627100  1
  C  498  1  0.74626400  0.21063300  0.60034500  1
  C  501  1  0.77908600  0.19269400  0.56949500  1
  C  503  1  0.85831600  0.13261400  0.51834000  1
  C  504  1  0.82769100  0.12494300  0.55514600  1
  C  505  1  0.83178500  0.08399800  0.57609800  1
  C  507  1  0.89805800  0.05869200  0.52462400  1
  C  508  1  0.86605100  0.05199700  0.56125300  1
  C  510  1  0.70093800  0.19944900  0.66699600  1
  C  511  1  0.57779000  0.24963100  0.74137400  1
  C  512  1  0.52894400  0.23161200  0.73483200  1
  C  513  1  0.48990000  0.23797800  0.76525300  1
  C  518  1  0.27671600  0.14672600  0.54587600  1
  C  522  1  0.20615500  0.16046100  0.73925500  1
  C  525  1  0.16565300  0.13101700  0.74813500  1
  C  526  1  0.20478800  0.20056300  0.53822000  1
  C  528  1  0.19387000  0.14671900  0.66350600  1
  C  530  1  0.24043600  0.18289500  0.60776300  1
  C  533  1  0.15344500  0.11684200  0.67282300  1
  C  534  1  0.12591200  0.09532700  0.64079200  1
  C  537  1  0.97829710  0.03376700  0.55077300  1
  C  538  1  0.00903300  0.07230200  0.54532900  1
  C  539  1  0.04318800  0.08713100  0.57675800  1
  C  540  1  0.04948100  0.06368300  0.61560900  1
  C  541  1  0.01868000  0.02593700  0.62237900  1
  C  542  1  0.98407910  0.01105800  0.59044100  1
  N  3  1  0.87713900  0.91441000  0.93667500  1
  N  5  1  0.85708200  0.83948700  0.85124900  1
  N  10  1  0.75722100  0.85832600  0.85831000  1
  N  14  1  0.84461300  0.78804400  0.79895700  1
  N  16  1  0.69419600  0.82869400  0.79106900  1
  N  45  1  0.15826100  0.99579700  0.86139000  1
  N  47  1  0.28201300  0.89824400  0.80997500  1
  N  49  1  0.21046700  0.95692800  0.78424800  1
  N  64  1  0.86510700  0.75197900  0.73644600  1
  N  83  1  0.34414800  0.86056700  0.74438700  1
  N  98  1  0.59362800  0.94988500  0.56070900  1
  N  110  1  0.51736900  0.64942400  0.56374500  1
  N  111  1  0.52430000  0.50646600  0.50131800  1
  N  118  1  0.60444400  0.09766700  0.50511700  1
  N  123  1  0.24131300  0.95969100  0.71568800  1
  N  126  1  0.23682900  0.96271700  0.64190600  1
  N  141  1  0.52685600  0.59466800  0.49127000  1
  N  143  1  0.53431700  0.59041800  0.41838000  1
  N  145  1  0.52379200  0.61050500  0.34771400  1
  N  163  1  0.51713300  0.45337900  0.42669600  1
  N  191  1  0.59825400  0.15206300  0.43061100  1
  N  193  1  0.58978900  0.01062200  0.49250700  1
  N  195  1  0.56577800  0.01914900  0.42267100  1
  N  197  1  0.55546700  0.00282900  0.35106200  1
  N  212  1  0.69002600  0.27244500  0.19565200  1
  N  217  1  0.82166500  0.37869100  0.00803000  1
  N  219  1  0.81445900  0.31439400  0.04951700  1
  N  223  1  0.77369700  0.30183200  0.11525300  1
  N  227  1  0.80796200  0.21839600  0.11752600  1
  N  229  1  0.87273700  0.18638100  0.05717900  1
  N  244  1  0.34860600  0.23945800  0.24564500  1
  N  250  1  0.29448400  0.19962400  0.18003400  1
  N  251  1  0.21750800  0.14377700  0.19794100  1
  N  256  1  0.28440200  0.18821500  0.10618700  1
  N  258  1  0.32604100  0.21893500  0.04680300  1
  N  273  1  0.15683800  0.11269800  0.12911700  1
  N  276  1  0.80081500  0.88136100  0.45374300  1
  N  278  1  0.78075800  0.80643800  0.36831700  1
  N  283  1  0.68089700  0.82527700  0.37537800  1
  N  287  1  0.76828900  0.75499500  0.31602500  1
  N  289  1  0.61787200  0.79564500  0.30813700  1
  N  318  1  0.08193700  0.96274780  0.37845800  1
  N  320  1  0.20568900  0.86519500  0.32704300  1
  N  322  1  0.13414300  0.92387880  0.30131600  1
  N  337  1  0.78878300  0.71893000  0.25351400  1
  N  356  1  0.26782400  0.82751800  0.26145500  1
  N  371  1  0.51730400  0.91683580  0.07777700  1
  N  383  1  0.44104500  0.61637500  0.08081300  1
  N  384  1  0.44797600  0.47341700  0.01838600  1
  N  391  1  0.52812000  0.06461800  0.02218500  1
  N  396  1  0.16498900  0.92664180  0.23275600  1
  N  399  1  0.16050500  0.92966780  0.15897400  1
  N  414  1  0.45053200  0.56161900  0.00833800  1
  N  416  1  0.45799300  0.55736900  0.93544840  1
  N  418  1  0.44746800  0.57745600  0.86478200  1
  N  436  1  0.44080900  0.42033000  0.94376440  1
  N  464  1  0.52193000  0.11901400  0.94767940  1
  N  466  1  0.51346500  0.97757280  0.00957500  1
  N  468  1  0.48945400  0.98609980  0.93973940  1
  N  470  1  0.47914300  0.96977980  0.86813000  1
  N  485  1  0.61370200  0.23939600  0.71272000  1
  N  490  1  0.74534100  0.34564200  0.52509800  1
  N  492  1  0.73813500  0.28134500  0.56658500  1
  N  496  1  0.69737300  0.26878300  0.63232100  1
  N  500  1  0.73163800  0.18534700  0.63459400  1
  N  502  1  0.79641300  0.15333200  0.57424700  1
  N  517  1  0.27228200  0.20640900  0.76271300  1
  N  523  1  0.21816000  0.16657500  0.69710200  1
  N  524  1  0.14118400  0.11072800  0.71500900  1
  N  529  1  0.20807800  0.15516600  0.62325500  1
  N  531  1  0.24971700  0.18588600  0.56387100  1
  N  546  1  0.08051400  0.07964900  0.64618500  1
