# generated using pymatgen
data_H19C29N6O
_symmetry_space_group_name_H-M   'P 1'
_cell_length_a   25.57830000
_cell_length_b   25.57830000
_cell_length_c   51.15660000
_cell_angle_alpha   90.00000000
_cell_angle_beta   90.00000000
_cell_angle_gamma   90.00000000
_symmetry_Int_Tables_number   1
_chemical_formula_structural   H19C29N6O
_chemical_formula_sum   'H76 C116 N24 O4'
_cell_volume   33469.17643627
_cell_formula_units_Z   4
loop_
 _symmetry_equiv_pos_site_id
 _symmetry_equiv_pos_as_xyz
  1  'x, y, z'
loop_
 _atom_site_type_symbol
 _atom_site_label
 _atom_site_symmetry_multiplicity
 _atom_site_fract_x
 _atom_site_fract_y
 _atom_site_fract_z
 _atom_site_occupancy
  H  49  1  0.09797800  0.31168100  0.01866200  1
  H  50  1  0.09922900  0.21814600  0.01846500  1
  H  51  1  0.93499200  0.30979500  0.00563000  1
  H  52  1  0.93621600  0.21596100  0.00566100  1
  H  53  1  0.02059500  0.18997000  0.95954400  1
  H  54  1  0.02018800  0.12008000  0.92448300  1
  H  55  1  0.01720300  0.04759700  0.99559600  1
  H  56  1  0.01949100  0.98294300  0.02794500  1
  H  57  1  0.01671000  0.19133100  0.06486700  1
  H  58  1  0.01878500  0.12107600  0.09997800  1
  H  59  1  0.10522300  0.01373300  0.11242100  1
  H  60  1  0.10605200  0.01462000  0.15935900  1
  H  61  1  0.94029300  0.01805400  0.11315500  1
  H  62  1  0.94111800  0.01932700  0.15994100  1
  H  63  1  0.02705100  0.91061600  0.09901000  1
  H  64  1  0.02785700  0.84074400  0.06394800  1
  H  65  1  0.01591800  0.90953300  0.92356800  1
  H  66  1  0.01804600  0.83923100  0.95865900  1
  H  67  1  0.94267000  0.81333800  0.02045500  1
  H  68  1  0.94281500  0.71998900  0.02065600  1
  H  69  1  0.10373100  0.81363500  0.00251000  1
  H  70  1  0.10390300  0.71979000  0.00256100  1
  H  71  1  0.09939000  0.01507000  0.90994700  1
  H  72  1  0.09753700  0.01751000  0.86314800  1
  H  73  1  0.93258800  0.01909200  0.86467300  1
  H  74  1  0.93442500  0.01701000  0.91160700  1
  H  127  1  0.71562600  0.09722000  0.51905300  1
  H  128  1  0.80918200  0.09827100  0.51894800  1
  H  129  1  0.71721800  0.93437800  0.50558900  1
  H  130  1  0.81105100  0.93540700  0.50567500  1
  H  131  1  0.83712800  0.02258000  0.45989000  1
  H  132  1  0.90685500  0.02279700  0.42477400  1
  H  133  1  0.97952600  0.01457400  0.49573900  1
  H  134  1  0.04422100  0.01817100  0.52805700  1
  H  135  1  0.83597100  0.01356300  0.56512000  1
  H  136  1  0.90637800  0.01396900  0.60020400  1
  H  137  1  0.00928200  0.09878100  0.61412000  1
  H  138  1  0.01247100  0.09616400  0.66095100  1
  H  139  1  0.01696500  0.93401500  0.61172000  1
  H  140  1  0.01999200  0.93145000  0.65863100  1
  H  141  1  0.11677100  0.02326700  0.59912300  1
  H  142  1  0.18650200  0.02593100  0.56402300  1
  H  143  1  0.11753900  0.01411600  0.42372700  1
  H  144  1  0.18779400  0.01671500  0.45878900  1
  H  145  1  0.21386700  0.94195100  0.51976100  1
  H  146  1  0.30721100  0.94218200  0.51987100  1
  H  147  1  0.21333600  0.10361100  0.50322600  1
  H  148  1  0.30718800  0.10389400  0.50322800  1
  H  149  1  0.02919600  0.09673900  0.40961700  1
  H  150  1  0.02761000  0.09424100  0.36272200  1
  H  151  1  0.99082100  0.93354900  0.36505600  1
  H  152  1  0.99275200  0.93583300  0.41199200  1
  H  164  1  0.94404700  0.06491100  0.74966300  1
  H  166  1  0.10721000  0.90877500  0.74327700  1
  H  167  1  0.12903200  0.91897900  0.71090400  1
  H  168  1  0.06129900  0.91295800  0.71707300  1
  H  170  1  0.07612700  0.98853400  0.81973800  1
  H  172  1  0.98382600  0.07146600  0.70475400  1
  H  180  1  0.93648600  0.97938100  0.24925200  1
  H  182  1  0.05661400  0.12750200  0.21903900  1
  H  183  1  0.12462900  0.12258100  0.21339200  1
  H  184  1  0.10157600  0.13079500  0.24569500  1
  H  186  1  0.06426800  0.05596700  0.32086400  1
  H  188  1  0.95853600  0.99840100  0.20413000  1
  H  196  1  0.10517100  0.49164000  0.00076500  1
  H  198  1  0.88006700  0.47944600  0.00467400  1
  H  199  1  0.87138300  0.41451600  0.01564000  1
  H  200  1  0.91500200  0.42709300  0.98958100  1
  H  202  1  0.95756200  0.63077300  0.02125200  1
  H  204  1  0.08323800  0.40112100  0.01146700  1
  H  212  1  0.53564600  0.10486300  0.50097400  1
  H  214  1  0.54717500  0.87953100  0.50472300  1
  H  215  1  0.61219100  0.87070700  0.51552700  1
  H  216  1  0.59946100  0.91429500  0.48947400  1
  H  218  1  0.39630500  0.95730800  0.52120200  1
  H  220  1  0.62612900  0.08271500  0.51168400  1
  C  1  1  0.01990000  0.15071000  0.96322700  1
  C  2  1  0.01969900  0.11260800  0.94410700  1
  C  3  1  0.01887600  0.06375300  0.95632900  1
  C  5  1  0.01898200  0.12612500  0.98762700  1
  C  6  1  0.01860200  0.15252100  0.01214500  1
  C  7  1  0.01904000  0.12731500  0.03690700  1
  C  9  1  0.02056200  0.06528800  0.06791300  1
  C  10  1  0.01912600  0.11390200  0.08032700  1
  C  11  1  0.01804000  0.15206500  0.06124700  1
  C  12  1  0.02208600  0.01577500  0.08049300  1
  C  13  1  0.02315400  0.96687100  0.06719100  1
  C  15  1  0.02345600  0.90449000  0.03587700  1
  C  16  1  0.02598100  0.87996500  0.06026700  1
  C  17  1  0.02558600  0.91806000  0.07939600  1
  C  18  1  0.02277400  0.87806900  0.01135400  1
  C  19  1  0.02110700  0.90326600  0.98659800  1
  C  21  1  0.01891000  0.96530300  0.95561100  1
  C  22  1  0.01773300  0.91668400  0.94320200  1
  C  23  1  0.01895300  0.87851100  0.96227300  1
  C  24  1  0.01825000  0.01483000  0.94304200  1
  C  25  1  0.01708000  0.01537600  0.91512400  1
  C  26  1  0.96900100  0.01668300  0.90153600  1
  C  27  1  0.96797300  0.01794600  0.87400100  1
  C  28  1  0.01475700  0.01737800  0.85934600  1
  C  29  1  0.06286100  0.01653600  0.87305900  1
  C  30  1  0.06402900  0.01543400  0.90058200  1
  C  31  1  0.02320200  0.82221700  0.01154100  1
  C  32  1  0.97689900  0.79398200  0.01673100  1
  C  33  1  0.97710600  0.73894700  0.01684900  1
  C  34  1  0.02356100  0.71058700  0.01168800  1
  C  35  1  0.06967700  0.73906000  0.00640800  1
  C  36  1  0.06965000  0.79414200  0.00637700  1
  C  37  1  0.02265900  0.01531000  0.10842600  1
  C  38  1  0.07042600  0.01441300  0.12229400  1
  C  39  1  0.07085000  0.01496400  0.14983800  1
  C  40  1  0.02375700  0.01600300  0.16424100  1
  C  41  1  0.97598400  0.01729200  0.15025400  1
  C  42  1  0.97542500  0.01681700  0.12271800  1
  C  43  1  0.01788400  0.20835400  0.01194200  1
  C  44  1  0.06445700  0.23712100  0.01562000  1
  C  45  1  0.97054600  0.23585300  0.00826100  1
  C  46  1  0.96989700  0.29091500  0.00825200  1
  C  47  1  0.01635000  0.31988100  0.01181700  1
  C  48  1  0.06367200  0.29217400  0.01562600  1
  C  79  1  0.87638000  0.02089000  0.46352200  1
  C  80  1  0.91440800  0.02092200  0.44436700  1
  C  81  1  0.96329700  0.01860300  0.45651400  1
  C  83  1  0.90102600  0.01851300  0.48787700  1
  C  84  1  0.87466000  0.01755100  0.51239900  1
  C  85  1  0.89990800  0.01709500  0.53714900  1
  C  87  1  0.96201900  0.01732100  0.56811500  1
  C  88  1  0.91345800  0.01528200  0.58055500  1
  C  89  1  0.87522700  0.01511700  0.56149400  1
  C  90  1  0.01157700  0.01814400  0.58065500  1
  C  91  1  0.06041900  0.02018400  0.56731900  1
  C  93  1  0.12267800  0.02225800  0.53597200  1
  C  94  1  0.14727500  0.02404100  0.56035800  1
  C  95  1  0.10926000  0.02251700  0.57950700  1
  C  96  1  0.14903000  0.02230600  0.51143600  1
  C  97  1  0.12377100  0.02076500  0.48669800  1
  C  99  1  0.06170800  0.01849200  0.45571800  1
  C  100  1  0.11034000  0.01661900  0.44333500  1
  C  101  1  0.14852600  0.01820100  0.46238800  1
  C  102  1  0.01215800  0.01786200  0.44314500  1
  C  103  1  0.01154500  0.01641900  0.41519800  1
  C  104  1  0.00044200  0.96938100  0.40178600  1
  C  105  1  0.99930400  0.96805100  0.37425900  1
  C  106  1  0.01025900  0.01330900  0.35945500  1
  C  107  1  0.02094700  0.06047900  0.37289400  1
  C  108  1  0.02158300  0.06202800  0.40042000  1
  C  109  1  0.20487800  0.02278200  0.51158600  1
  C  110  1  0.23317600  0.97632800  0.51633400  1
  C  111  1  0.28820900  0.97659400  0.51640900  1
  C  112  1  0.31650900  0.02326200  0.51165900  1
  C  113  1  0.28796400  0.06951800  0.50678500  1
  C  114  1  0.23288000  0.06942600  0.50678300  1
  C  115  1  0.01225900  0.01662100  0.60857300  1
  C  116  1  0.01086100  0.06329300  0.62332900  1
  C  117  1  0.01239900  0.06168700  0.65085100  1
  C  118  1  0.01513100  0.01339700  0.66431100  1
  C  119  1  0.01721200  0.96691400  0.64946300  1
  C  120  1  0.01543200  0.96838000  0.62194300  1
  C  121  1  0.81881900  0.01698100  0.51221400  1
  C  122  1  0.79013900  0.06357100  0.51600200  1
  C  123  1  0.79122600  0.96974800  0.50837100  1
  C  124  1  0.73616300  0.96920900  0.50832600  1
  C  125  1  0.70727900  0.01568300  0.51199500  1
  C  126  1  0.73507600  0.06290300  0.51595700  1
  C  157  1  0.05752800  0.00056300  0.74440300  1
  C  158  1  0.01254200  0.02732300  0.73522500  1
  C  159  1  0.97732100  0.04509800  0.75463800  1
  C  161  1  0.03096100  0.01210300  0.78885100  1
  C  165  1  0.09810200  0.92822900  0.72480600  1
  C  169  1  0.04236800  0.00538000  0.81504500  1
  C  171  1  0.00360900  0.03908500  0.70901500  1
  C  173  1  0.05301800  0.03837100  0.24519000  1
  C  174  1  0.00688100  0.01444900  0.23538700  1
  C  175  1  0.97095200  0.99669300  0.25452100  1
  C  177  1  0.02548200  0.02509800  0.28935500  1
  C  181  1  0.09332400  0.11225700  0.22689200  1
  C  185  1  0.03491900  0.03262500  0.31567600  1
  C  187  1  0.99458600  0.00939500  0.20887800  1
  C  189  1  0.98021800  0.48053200  0.01946000  1
  C  190  1  0.03069300  0.46223600  0.01238200  1
  C  191  1  0.06788700  0.50133900  0.00611900  1
  C  193  1  0.00702600  0.56949900  0.01448800  1
  C  197  1  0.89998200  0.44226200  0.00809700  1
  C  201  1  0.99388600  0.62175000  0.01608700  1
  C  203  1  0.04535400  0.40966800  0.01202200  1
  C  205  1  0.54653400  0.97976100  0.51944000  1
  C  206  1  0.56492400  0.03025900  0.51246400  1
  C  207  1  0.52588000  0.06755400  0.50625200  1
  C  209  1  0.45761100  0.00673700  0.51448100  1
  C  213  1  0.58444100  0.89936000  0.50803600  1
  C  217  1  0.40534400  0.99362800  0.51604300  1
  C  219  1  0.61752000  0.04484100  0.51216300  1
  N  4  1  0.01855200  0.07413900  0.98234700  1
  N  8  1  0.02052300  0.07544000  0.04196400  1
  N  14  1  0.02194600  0.95645200  0.04117800  1
  N  20  1  0.02098300  0.95515800  0.98154100  1
  N  75  1  0.02697600  0.65846500  0.01135400  1
  N  76  1  0.02742900  0.01784700  0.19027200  1
  N  77  1  0.01215400  0.37185700  0.01201600  1
  N  78  1  0.01088800  0.01973800  0.83332600  1
  N  82  1  0.95298800  0.01737000  0.48253800  1
  N  86  1  0.95179200  0.01845300  0.54217900  1
  N  92  1  0.07074400  0.02022800  0.54129300  1
  N  98  1  0.07187100  0.02090600  0.48164300  1
  N  153  1  0.36863300  0.02673500  0.51132800  1
  N  154  1  0.01894300  0.00927400  0.69024400  1
  N  155  1  0.65528600  0.01158400  0.51213500  1
  N  156  1  0.00738200  0.01009900  0.33347400  1
  N  160  1  0.98725500  0.03720300  0.78042400  1
  N  162  1  0.06535200  0.99480100  0.77054800  1
  N  176  1  0.98087900  0.00247900  0.28042500  1
  N  178  1  0.06063900  0.04242300  0.27144300  1
  N  192  1  0.05537400  0.55286700  0.00729800  1
  N  194  1  0.97066700  0.53278400  0.02057300  1
  N  208  1  0.47432400  0.05511100  0.50738500  1
  N  210  1  0.49426700  0.97028400  0.52051600  1
  O  163  1  0.09625800  0.98408800  0.72787300  1
  O  179  1  0.09199000  0.05625200  0.22918500  1
  O  195  1  0.94094200  0.44761800  0.02717300  1
  O  211  1  0.57938600  0.94038300  0.52709900  1
