# generated using pymatgen
data_Zn3H58C90(N2O3)4
_symmetry_space_group_name_H-M   'P 1'
_cell_length_a   21.06322000
_cell_length_b   21.21315000
_cell_length_c   21.52730000
_cell_angle_alpha   62.96240000
_cell_angle_beta   63.72383000
_cell_angle_gamma   82.51127000
_symmetry_Int_Tables_number   1
_chemical_formula_structural   Zn3H58C90(N2O3)4
_chemical_formula_sum   'Zn6 H116 C180 N16 O24'
_cell_volume   7651.90483317
_cell_formula_units_Z   2
loop_
 _symmetry_equiv_pos_site_id
 _symmetry_equiv_pos_as_xyz
  1  'x, y, z'
loop_
 _atom_site_type_symbol
 _atom_site_label
 _atom_site_symmetry_multiplicity
 _atom_site_fract_x
 _atom_site_fract_y
 _atom_site_fract_z
 _atom_site_occupancy
  Zn  Zn0  1  0.04165000  0.44176000  0.33452000  1
  Zn  Zn1  1  0.08252000  0.26775000  0.37595000  1
  Zn  Zn2  1  0.08618000  0.11132000  0.34659000  1
  Zn  Zn3  1  0.95835000  0.55824000  0.66547000  1
  Zn  Zn4  1  0.91748000  0.73225000  0.62405000  1
  Zn  Zn5  1  0.91382000  0.88869000  0.65341000  1
  H  H6  1  0.10618000  0.79721000  0.36579000  1
  H  H7  1  0.05520000  0.72262000  0.43866000  1
  H  H8  1  0.21765000  0.47642000  0.50544000  1
  H  H9  1  0.21412000  0.24790000  0.61005000  1
  H  H10  1  0.03655000  0.62679000  0.42942000  1
  H  H11  1  0.05651000  0.51167000  0.42367000  1
  H  H12  1  0.06636000  0.94791000  0.45073000  1
  H  H13  1  0.59293000  0.29813000  0.71988000  1
  H  H14  1  0.68145000  0.41122000  0.45543000  1
  H  H15  1  0.15695000  0.47078000  0.43180000  1
  H  H16  1  0.46190000  0.45435000  0.57155000  1
  H  H17  1  0.83402000  0.35575000  0.59182000  1
  H  H18  1  0.70332000  0.34895000  0.66509000  1
  H  H19  1  0.00404000  0.58125000  0.24018000  1
  H  H20  1  0.81244000  0.42181000  0.38257000  1
  H  H21  1  0.99300000  0.98167000  0.25126000  1
  H  H22  1  0.40205000  0.29518000  0.64286000  1
  H  H23  1  0.42838000  0.43858000  0.77048000  1
  H  H24  1  0.26580000  0.49698000  0.96017000  1
  H  H25  1  0.26669000  0.44698000  0.70625000  1
  H  H26  1  0.46214000  0.29488000  0.78535000  1
  H  H27  1  0.18935000  0.27560000  0.07697000  1
  H  H28  1  0.03451000  0.84103000  0.44828000  1
  H  H29  1  0.15166000  0.24302000  0.53807000  1
  H  H30  1  0.18700000  0.31608000  0.95591000  1
  H  H31  1  0.33385000  0.28934000  0.57699000  1
  H  H32  1  0.36653000  0.44415000  0.89537000  1
  H  H33  1  0.98349000  0.70223000  0.23570000  1
  H  H34  1  0.12072000  0.28433000  0.19893000  1
  H  H35  1  0.59277000  0.46012000  0.50664000  1
  H  H36  1  0.19939000  0.44264000  0.63850000  1
  H  H37  1  0.24798000  0.31191000  0.83021000  1
  H  H38  1  0.19542000  0.50552000  0.08413000  1
  H  H39  1  0.02368000  0.08383000  0.26526000  1
  H  H40  1  0.31244000  0.22953000  0.44623000  1
  H  H41  1  0.73985000  0.05603000  0.52798000  1
  H  H42  1  0.73957000  0.25991000  0.52819000  1
  H  H43  1  0.25761000  0.19705000  0.87222000  1
  H  H44  1  0.87072000  0.07318000  0.45643000  1
  H  H45  1  0.46784000  0.06210000  0.81044000  1
  H  H46  1  0.51329000  0.21098000  0.68887000  1
  H  H47  1  0.50461000  0.05493000  0.61657000  1
  H  H48  1  0.13235000  0.15086000  0.11698000  1
  H  H49  1  0.20069000  0.02608000  0.62851000  1
  H  H50  1  0.63506000  0.06999000  0.54426000  1
  H  H51  1  0.24559000  0.23327000  0.37516000  1
  H  H52  1  0.19264000  0.14742000  0.99031000  1
  H  H53  1  0.39411000  0.19232000  0.47969000  1
  H  H54  1  0.41378000  0.06678000  0.93584000  1
  H  H55  1  0.31019000  0.19098000  0.74845000  1
  H  H56  1  0.13275000  0.03198000  0.55727000  1
  H  H57  1  0.46223000  0.19325000  0.54672000  1
  H  H58  1  0.32692000  0.11595000  0.14095000  1
  H  H59  1  0.39055000  0.12125000  0.00958000  1
  H  H60  1  0.87039000  0.27193000  0.46354000  1
  H  H61  1  0.29535000  0.05665000  0.76536000  1
  H  H62  1  0.22470000  0.05899000  0.69888000  1
  H  H63  1  0.64342000  0.22308000  0.62139000  1
  H  H64  1  0.89382000  0.20280000  0.63421000  1
  H  H65  1  0.94481000  0.27738000  0.56134000  1
  H  H66  1  0.78235000  0.52358000  0.49456000  1
  H  H67  1  0.78588000  0.75210000  0.38995000  1
  H  H68  1  0.96345000  0.37322000  0.57058000  1
  H  H69  1  0.94349000  0.48834000  0.57633000  1
  H  H70  1  0.93364000  0.05209000  0.54927000  1
  H  H71  1  0.40708000  0.70188000  0.28012000  1
  H  H72  1  0.31856000  0.58878000  0.54457000  1
  H  H73  1  0.84305000  0.52922000  0.56819000  1
  H  H74  1  0.53810000  0.54565000  0.42845000  1
  H  H75  1  0.16599000  0.64425000  0.40818000  1
  H  H76  1  0.29668000  0.65106000  0.33491000  1
  H  H77  1  0.99596000  0.41875000  0.75982000  1
  H  H78  1  0.18756000  0.57820000  0.61743000  1
  H  H79  1  0.00700000  0.01834000  0.74873000  1
  H  H80  1  0.59795000  0.70482000  0.35714000  1
  H  H81  1  0.57162000  0.56143000  0.22952000  1
  H  H82  1  0.73421000  0.50302000  0.03983000  1
  H  H83  1  0.73331000  0.55302000  0.29375000  1
  H  H84  1  0.53786000  0.70512000  0.21465000  1
  H  H85  1  0.81065000  0.72440000  0.92302000  1
  H  H86  1  0.96549000  0.15897000  0.55172000  1
  H  H87  1  0.84835000  0.75699000  0.46193000  1
  H  H88  1  0.81301000  0.68392000  0.04409000  1
  H  H89  1  0.66615000  0.71066000  0.42301000  1
  H  H90  1  0.63347000  0.55585000  0.10463000  1
  H  H91  1  0.01651000  0.29777000  0.76429000  1
  H  H92  1  0.87928000  0.71567000  0.80107000  1
  H  H93  1  0.40724000  0.53988000  0.49336000  1
  H  H94  1  0.80062000  0.55737000  0.36150000  1
  H  H95  1  0.75203000  0.68810000  0.16979000  1
  H  H96  1  0.80459000  0.49448000  0.91587000  1
  H  H97  1  0.97633000  0.91617000  0.73474000  1
  H  H98  1  0.68757000  0.77048000  0.55377000  1
  H  H99  1  0.26015000  0.94397000  0.47202000  1
  H  H100  1  0.26044000  0.74009000  0.47181000  1
  H  H101  1  0.74240000  0.80295000  0.12778000  1
  H  H102  1  0.12928000  0.92683000  0.54357000  1
  H  H103  1  0.53216000  0.93791000  0.18956000  1
  H  H104  1  0.48672000  0.78902000  0.31112000  1
  H  H105  1  0.49539000  0.94507000  0.38343000  1
  H  H106  1  0.86765000  0.84914000  0.88302000  1
  H  H107  1  0.79931000  0.97393000  0.37148000  1
  H  H108  1  0.36494000  0.93001000  0.45574000  1
  H  H109  1  0.75441000  0.76673000  0.62484000  1
  H  H110  1  0.80736000  0.85258000  0.00969000  1
  H  H111  1  0.60589000  0.80768000  0.52031000  1
  H  H112  1  0.58622000  0.93322000  0.06416000  1
  H  H113  1  0.68981000  0.80902000  0.25155000  1
  H  H114  1  0.86725000  0.96802000  0.44273000  1
  H  H115  1  0.53777000  0.80675000  0.45328000  1
  H  H116  1  0.67308000  0.88405000  0.85905000  1
  H  H117  1  0.60945000  0.87875000  0.99042000  1
  H  H118  1  0.12961000  0.72807000  0.53646000  1
  H  H119  1  0.70465000  0.94335000  0.23464000  1
  H  H120  1  0.77531000  0.94101000  0.30112000  1
  H  H121  1  0.35658000  0.77692000  0.37861000  1
  C  C122  1  0.00968000  0.67564000  0.33083000  1
  C  C123  1  0.22114000  0.36247000  0.56241000  1
  C  C124  1  0.99707000  0.74617000  0.32673000  1
  C  C125  1  0.15048000  0.35662000  0.47976000  1
  C  C126  1  0.01305000  0.90265000  0.34707000  1
  C  C127  1  0.68167000  0.38100000  0.56580000  1
  C  C128  1  0.20265000  0.42517000  0.51328000  1
  C  C129  1  0.26113000  0.36551000  0.60287000  1
  C  C130  1  0.11067000  0.40177000  0.22231000  1
  C  C131  1  0.99685000  0.84498000  0.33596000  1
  C  C132  1  0.20205000  0.29695000  0.57075000  1
  C  C133  1  0.91071000  0.39733000  0.43879000  1
  C  C134  1  0.02988000  0.62071000  0.38507000  1
  C  C135  1  0.23240000  0.38580000  0.00919000  1
  C  C136  1  0.04069000  0.55553000  0.38282000  1
  C  C137  1  0.60359000  0.37854000  0.60731000  1
  C  C138  1  0.33887000  0.37105000  0.67972000  1
  C  C139  1  0.04952000  0.95293000  0.40776000  1
  C  C140  1  0.56497000  0.33350000  0.68689000  1
  C  C141  1  0.71437000  0.40088000  0.48561000  1
  C  C142  1  0.16857000  0.42221000  0.47199000  1
  C  C143  1  0.11735000  0.35401000  0.43239000  1
  C  C144  1  0.49089000  0.41997000  0.60367000  1
  C  C145  1  0.27144000  0.38114000  0.93522000  1
  C  C146  1  0.34268000  0.37471000  0.79126000  1
  C  C147  1  0.79989000  0.36855000  0.56250000  1
  C  C148  1  0.72629000  0.36418000  0.60343000  1
  C  C149  1  0.01124000  0.59442000  0.28013000  1
  C  C150  1  0.78789000  0.40628000  0.44440000  1
  C  C151  1  0.00843000  0.97256000  0.29642000  1
  C  C152  1  0.35745000  0.32726000  0.64213000  1
  C  C153  1  0.37528000  0.41208000  0.81087000  1
  C  C154  1  0.23457000  0.45030000  0.01264000  1
  C  C155  1  0.15349000  0.39599000  0.14936000  1
  C  C156  1  0.28161000  0.41285000  0.67747000  1
  C  C157  1  0.45296000  0.37421000  0.68278000  1
  C  C158  1  0.49107000  0.33099000  0.72422000  1
  C  C159  1  0.19053000  0.32645000  0.07757000  1
  C  C160  1  0.03298000  0.89323000  0.40471000  1
  C  C161  1  0.83167000  0.39055000  0.48234000  1
  C  C162  1  0.16664000  0.29395000  0.53063000  1
  C  C163  1  0.23989000  0.34309000  0.91537000  1
  C  C164  1  0.31883000  0.32418000  0.60504000  1
  C  C165  1  0.33999000  0.41528000  0.88138000  1
  C  C166  1  0.99978000  0.66110000  0.27789000  1
  C  C167  1  0.15197000  0.33118000  0.14685000  1
  C  C168  1  0.56447000  0.42216000  0.56713000  1
  C  C169  1  0.24372000  0.41011000  0.63941000  1
  C  C170  1  0.27426000  0.34027000  0.84478000  1
  C  C171  1  0.19519000  0.45556000  0.08152000  1
  C  C172  1  0.02504000  0.02890000  0.30403000  1
  C  C173  1  0.14584000  0.13591000  0.41828000  1
  C  C174  1  0.72874000  0.15626000  0.53475000  1
  C  C175  1  0.18516000  0.13276000  0.46160000  1
  C  C176  1  0.87864000  0.17347000  0.45625000  1
  C  C177  1  0.27452000  0.18510000  0.47023000  1
  C  C178  1  0.95740000  0.18236000  0.41780000  1
  C  C179  1  0.29636000  0.13424000  0.98990000  1
  C  C180  1  0.76747000  0.10446000  0.51277000  1
  C  C181  1  0.76722000  0.21731000  0.51530000  1
  C  C182  1  0.30291000  0.16624000  0.85994000  1
  C  C183  1  0.30355000  0.12563000  0.58359000  1
  C  C184  1  0.26264000  0.12717000  0.54245000  1
  C  C185  1  0.84125000  0.11343000  0.47295000  1
  C  C186  1  0.65046000  0.14750000  0.57696000  1
  C  C187  1  0.42167000  0.09165000  0.82434000  1
  C  C188  1  0.54024000  0.17945000  0.65799000  1
  C  C189  1  0.53548000  0.09186000  0.61705000  1
  C  C190  1  0.50017000  0.13164000  0.65793000  1
  C  C191  1  0.33108000  0.13246000  0.91442000  1
  C  C192  1  0.18884000  0.14409000  0.09287000  1
  C  C193  1  0.21065000  0.07195000  0.57336000  1
  C  C194  1  0.22597000  0.13411000  0.13654000  1
  C  C195  1  0.60919000  0.10042000  0.57672000  1
  C  C196  1  0.38386000  0.12478000  0.66080000  1
  C  C197  1  0.23644000  0.18811000  0.43048000  1
  C  C198  1  0.22318000  0.14303000  0.02145000  1
  C  C199  1  0.37120000  0.16319000  0.54244000  1
  C  C200  1  0.39147000  0.09529000  0.89456000  1
  C  C201  1  0.33261000  0.16322000  0.78963000  1
  C  C202  1  0.17272000  0.07457000  0.53343000  1
  C  C203  1  0.39265000  0.12584000  0.77078000  1
  C  C204  1  0.41037000  0.16351000  0.57991000  1
  C  C205  1  0.29867000  0.12448000  0.10633000  1
  C  C206  1  0.18663000  0.12912000  0.21598000  1
  C  C207  1  0.33359000  0.12603000  0.03342000  1
  C  C208  1  0.84089000  0.22513000  0.47798000  1
  C  C209  1  0.31652000  0.08673000  0.70279000  1
  C  C210  1  0.27721000  0.08774000  0.66473000  1
  C  C211  1  0.61397000  0.18646000  0.61895000  1
  C  C212  1  0.99032000  0.32436000  0.66917000  1
  C  C213  1  0.77886000  0.63753000  0.43759000  1
  C  C214  1  0.00293000  0.25383000  0.67327000  1
  C  C215  1  0.84953000  0.64338000  0.52024000  1
  C  C216  1  0.98695000  0.09735000  0.65293000  1
  C  C217  1  0.31833000  0.61900000  0.43420000  1
  C  C218  1  0.79735000  0.57483000  0.48672000  1
  C  C219  1  0.73887000  0.63450000  0.39713000  1
  C  C220  1  0.88933000  0.59824000  0.77769000  1
  C  C221  1  0.00315000  0.15502000  0.66404000  1
  C  C222  1  0.79795000  0.70305000  0.42925000  1
  C  C223  1  0.08930000  0.60268000  0.56121000  1
  C  C224  1  0.97012000  0.37929000  0.61493000  1
  C  C225  1  0.76760000  0.61420000  0.99081000  1
  C  C226  1  0.95931000  0.44447000  0.61718000  1
  C  C227  1  0.39642000  0.62147000  0.39269000  1
  C  C228  1  0.66114000  0.62895000  0.32028000  1
  C  C229  1  0.95048000  0.04707000  0.59224000  1
  C  C230  1  0.43504000  0.66650000  0.31311000  1
  C  C231  1  0.28563000  0.59913000  0.51439000  1
  C  C232  1  0.83143000  0.57779000  0.52801000  1
  C  C233  1  0.88266000  0.64600000  0.56761000  1
  C  C234  1  0.50911000  0.58004000  0.39633000  1
  C  C235  1  0.72856000  0.61886000  0.06477000  1
  C  C236  1  0.65732000  0.62530000  0.20874000  1
  C  C237  1  0.20012000  0.63145000  0.43750000  1
  C  C238  1  0.27371000  0.63582000  0.39657000  1
  C  C239  1  0.98876000  0.40558000  0.71987000  1
  C  C240  1  0.21211000  0.59373000  0.55559000  1
  C  C241  1  0.99158000  0.02744000  0.70358000  1
  C  C242  1  0.64255000  0.67275000  0.35787000  1
  C  C243  1  0.62472000  0.58793000  0.18913000  1
  C  C244  1  0.76543000  0.54970000  0.98736000  1
  C  C245  1  0.84651000  0.60402000  0.85064000  1
  C  C246  1  0.71839000  0.58715000  0.32253000  1
  C  C247  1  0.54704000  0.62579000  0.31722000  1
  C  C248  1  0.50894000  0.66901000  0.27578000  1
  C  C249  1  0.80947000  0.67355000  0.92243000  1
  C  C250  1  0.96703000  0.10677000  0.59529000  1
  C  C251  1  0.16833000  0.60945000  0.51766000  1
  C  C252  1  0.83336000  0.70605000  0.46937000  1
  C  C253  1  0.76011000  0.65691000  0.08463000  1
  C  C254  1  0.68117000  0.67582000  0.39495000  1
  C  C255  1  0.66001000  0.58472000  0.11862000  1
  C  C256  1  0.00022000  0.33891000  0.72211000  1
  C  C257  1  0.84803000  0.66882000  0.85315000  1
  C  C258  1  0.43553000  0.57784000  0.43287000  1
  C  C259  1  0.75628000  0.58989000  0.36059000  1
  C  C260  1  0.72574000  0.65974000  0.15522000  1
  C  C261  1  0.80481000  0.54445000  0.91848000  1
  C  C262  1  0.97496000  0.97111000  0.69597000  1
  C  C263  1  0.85416000  0.86409000  0.58172000  1
  C  C264  1  0.27127000  0.84374000  0.46525000  1
  C  C265  1  0.81484000  0.86725000  0.53840000  1
  C  C266  1  0.12136000  0.82654000  0.54375000  1
  C  C267  1  0.72549000  0.81491000  0.52977000  1
  C  C268  1  0.04260000  0.81764000  0.58220000  1
  C  C269  1  0.70364000  0.86576000  0.01010000  1
  C  C270  1  0.23254000  0.89554000  0.48723000  1
  C  C271  1  0.23278000  0.78269000  0.48470000  1
  C  C272  1  0.69709000  0.83376000  0.14006000  1
  C  C273  1  0.69645000  0.87437000  0.41641000  1
  C  C274  1  0.73736000  0.87283000  0.45755000  1
  C  C275  1  0.15876000  0.88657000  0.52705000  1
  C  C276  1  0.34955000  0.85250000  0.42304000  1
  C  C277  1  0.57833000  0.90835000  0.17566000  1
  C  C278  1  0.45976000  0.82055000  0.34201000  1
  C  C279  1  0.46453000  0.90814000  0.38295000  1
  C  C280  1  0.49983000  0.86837000  0.34207000  1
  C  C281  1  0.66892000  0.86755000  0.08558000  1
  C  C282  1  0.81116000  0.85592000  0.90713000  1
  C  C283  1  0.78935000  0.92805000  0.42664000  1
  C  C284  1  0.77404000  0.86590000  0.86346000  1
  C  C285  1  0.39081000  0.89959000  0.42328000  1
  C  C286  1  0.61615000  0.87522000  0.33920000  1
  C  C287  1  0.76357000  0.81190000  0.56952000  1
  C  C288  1  0.77682000  0.85697000  0.97855000  1
  C  C289  1  0.62880000  0.83681000  0.45756000  1
  C  C290  1  0.60853000  0.90471000  0.10544000  1
  C  C291  1  0.66739000  0.83678000  0.21037000  1
  C  C292  1  0.82729000  0.92543000  0.46657000  1
  C  C293  1  0.60735000  0.87416000  0.22922000  1
  C  C294  1  0.58964000  0.83649000  0.42009000  1
  C  C295  1  0.70133000  0.87552000  0.89367000  1
  C  C296  1  0.81337000  0.87088000  0.78402000  1
  C  C297  1  0.66642000  0.87397000  0.96658000  1
  C  C298  1  0.15912000  0.77487000  0.52202000  1
  C  C299  1  0.68348000  0.91327000  0.29721000  1
  C  C300  1  0.72279000  0.91226000  0.33527000  1
  C  C301  1  0.38603000  0.81355000  0.38104000  1
  N  N302  1  0.02281000  0.77887000  0.35475000  1
  N  N303  1  0.04631000  0.01955000  0.35826000  1
  N  N304  1  0.95776000  0.85149000  0.29877000  1
  N  N305  1  0.07671000  0.75418000  0.37964000  1
  N  N306  1  0.37776000  0.37235000  0.71898000  1
  N  N307  1  0.03219000  0.54218000  0.33127000  1
  N  N308  1  0.95729000  0.78980000  0.29382000  1
  N  N309  1  0.42480000  0.12408000  0.69823000  1
  N  N310  1  0.97719000  0.22113000  0.64525000  1
  N  N311  1  0.95369000  0.98045000  0.64174000  1
  N  N312  1  0.04224000  0.14851000  0.70123000  1
  N  N313  1  0.92329000  0.24582000  0.62036000  1
  N  N314  1  0.62225000  0.62765000  0.28102000  1
  N  N315  1  0.96781000  0.45782000  0.66873000  1
  N  N316  1  0.04272000  0.21020000  0.70618000  1
  N  N317  1  0.57521000  0.87592000  0.30177000  1
  O  O318  1  0.10462000  0.46247000  0.22231000  1
  O  O319  1  0.09760000  0.29210000  0.44644000  1
  O  O320  1  0.93748000  0.42562000  0.36417000  1
  O  O321  1  0.07684000  0.34532000  0.28522000  1
  O  O322  1  0.94939000  0.37708000  0.47465000  1
  O  O323  1  0.11168000  0.41272000  0.38063000  1
  O  O324  1  0.98605000  0.22208000  0.43114000  1
  O  O325  1  0.14864000  0.19529000  0.35968000  1
  O  O326  1  0.11108000  0.08014000  0.43714000  1
  O  O327  1  0.12656000  0.15849000  0.23064000  1
  O  O328  1  0.98993000  0.14969000  0.37725000  1
  O  O329  1  0.20863000  0.09487000  0.26671000  1
  O  O330  1  0.89538000  0.53753000  0.77769000  1
  O  O331  1  0.90241000  0.70790000  0.55356000  1
  O  O332  1  0.06252000  0.57438000  0.63583000  1
  O  O333  1  0.92317000  0.65468000  0.71478000  1
  O  O334  1  0.05061000  0.62292000  0.52535000  1
  O  O335  1  0.88832000  0.58728000  0.61937000  1
  O  O336  1  0.01396000  0.77792000  0.56886000  1
  O  O337  1  0.85136000  0.80471000  0.64032000  1
  O  O338  1  0.88892000  0.91986000  0.56286000  1
  O  O339  1  0.87344000  0.84151000  0.76936000  1
  O  O340  1  0.01008000  0.85031000  0.62275000  1
  O  O341  1  0.79138000  0.90513000  0.73329000  1
