# generated using pymatgen
data_CdH3C9NO4
_symmetry_space_group_name_H-M   'P 1'
_cell_length_a   7.12910000
_cell_length_b   11.03750000
_cell_length_c   16.07480000
_cell_angle_alpha   90.00000000
_cell_angle_beta   90.00000000
_cell_angle_gamma   90.00000000
_symmetry_Int_Tables_number   1
_chemical_formula_structural   CdH3C9NO4
_chemical_formula_sum   'Cd4 H12 C36 N4 O16'
_cell_volume   1264.88488061
_cell_formula_units_Z   4
loop_
 _symmetry_equiv_pos_site_id
 _symmetry_equiv_pos_as_xyz
  1  'x, y, z'
loop_
 _atom_site_type_symbol
 _atom_site_label
 _atom_site_symmetry_multiplicity
 _atom_site_fract_x
 _atom_site_fract_y
 _atom_site_fract_z
 _atom_site_occupancy
  Cd  Cd1  1  0.45536000  0.13379000  0.77616000  1.0
  Cd  Cd2  1  0.54464000  0.63379000  0.22384000  1.0
  Cd  Cd3  1  0.95536000  0.13379000  0.72384000  1.0
  Cd  Cd4  1  0.04464000  0.63379000  0.27616000  1.0
  H  H1  1  0.68880000  0.87320000  0.00050000  1.0
  H  H2  1  0.17120000  0.68320000  0.00780000  1.0
  H  H3  1  0.03910000  0.87940000  0.80420000  1.0
  H  H4  1  0.31120000  0.37320000  0.99950000  1.0
  H  H5  1  0.82880000  0.18320000  0.99220000  1.0
  H  H6  1  0.96090000  0.37940000  0.19580000  1.0
  H  H7  1  0.18880000  0.87320000  0.49950000  1.0
  H  H8  1  0.67120000  0.68320000  0.49220000  1.0
  H  H9  1  0.53910000  0.87940000  0.69580000  1.0
  H  H10  1  0.81120000  0.37320000  0.50050000  1.0
  H  H11  1  0.32880000  0.18320000  0.50780000  1.0
  H  H12  1  0.46090000  0.37940000  0.30420000  1.0
  C  C1  1  0.71160000  0.97530000  0.85020000  1.0
  C  C2  1  0.84410000  0.89090000  0.89540000  1.0
  C  C3  1  0.79960000  0.84850000  0.97520000  1.0
  C  C4  1  0.92020000  0.76930000  0.01700000  1.0
  C  C5  1  0.86670000  0.71530000  0.10130000  1.0
  C  C6  1  0.08900000  0.73440000  0.97990000  1.0
  C  C7  1  0.13300000  0.77710000  0.90070000  1.0
  C  C8  1  0.30860000  0.74070000  0.86280000  1.0
  C  C9  1  0.01000000  0.85360000  0.85780000  1.0
  C  C10  1  0.28840000  0.47530000  0.14980000  1.0
  C  C11  1  0.15590000  0.39090000  0.10460000  1.0
  C  C12  1  0.20040000  0.34850000  0.02480000  1.0
  C  C13  1  0.07980000  0.26930000  0.98300000  1.0
  C  C14  1  0.13330000  0.21530000  0.89870000  1.0
  C  C15  1  0.91100000  0.23440000  0.02010000  1.0
  C  C16  1  0.86700000  0.27710000  0.09930000  1.0
  C  C17  1  0.69140000  0.24070000  0.13720000  1.0
  C  C18  1  0.99000000  0.35360000  0.14220000  1.0
  C  C19  1  0.21160000  0.97530000  0.64980000  1.0
  C  C20  1  0.34410000  0.89090000  0.60460000  1.0
  C  C21  1  0.29960000  0.84850000  0.52480000  1.0
  C  C22  1  0.42020000  0.76930000  0.48300000  1.0
  C  C23  1  0.36670000  0.71530000  0.39870000  1.0
  C  C24  1  0.58900000  0.73440000  0.52010000  1.0
  C  C25  1  0.63300000  0.77710000  0.59930000  1.0
  C  C26  1  0.80860000  0.74070000  0.63720000  1.0
  C  C27  1  0.51000000  0.85360000  0.64220000  1.0
  C  C28  1  0.78840000  0.47530000  0.35020000  1.0
  C  C29  1  0.65590000  0.39090000  0.39540000  1.0
  C  C30  1  0.70040000  0.34850000  0.47520000  1.0
  C  C31  1  0.57980000  0.26930000  0.51700000  1.0
  C  C32  1  0.63330000  0.21530000  0.60130000  1.0
  C  C33  1  0.41100000  0.23440000  0.47990000  1.0
  C  C34  1  0.36700000  0.27710000  0.40070000  1.0
  C  C35  1  0.19140000  0.24070000  0.36280000  1.0
  C  C36  1  0.49000000  0.35360000  0.35780000  1.0
  N  N1  1  0.45000000  0.71080000  0.83490000  1.0
  N  N2  1  0.55000000  0.21080000  0.16510000  1.0
  N  N3  1  0.95000000  0.71080000  0.66510000  1.0
  N  N4  1  0.05000000  0.21080000  0.33490000  1.0
  O  O1  1  0.57130000  0.01470000  0.88829000  1.0
  O  O2  1  0.74280000  0.00140000  0.77543000  1.0
  O  O3  1  0.69910000  0.72910000  0.12270000  1.0
  O  O4  1  0.99290000  0.66190000  0.13937000  1.0
  O  O5  1  0.42870000  0.51470000  0.11171000  1.0
  O  O6  1  0.25720000  0.50140000  0.22457000  1.0
  O  O7  1  0.30090000  0.22910000  0.87730000  1.0
  O  O8  1  0.00710000  0.16190000  0.86063000  1.0
  O  O9  1  0.07130000  0.01470000  0.61171000  1.0
  O  O10  1  0.24280000  0.00140000  0.72457000  1.0
  O  O11  1  0.19910000  0.72910000  0.37730000  1.0
  O  O12  1  0.49290000  0.66190000  0.36063000  1.0
  O  O13  1  0.92870000  0.51470000  0.38829000  1.0
  O  O14  1  0.75720000  0.50140000  0.27543000  1.0
  O  O15  1  0.80090000  0.22910000  0.62270000  1.0
  O  O16  1  0.50710000  0.16190000  0.63937000  1.0
