# generated using pymatgen
data_Fe3H12C24O13
_symmetry_space_group_name_H-M   'P 1'
_cell_length_a   14.78715848
_cell_length_b   14.79700000
_cell_length_c   17.04300000
_cell_angle_alpha   90.00000000
_cell_angle_beta   90.00000000
_cell_angle_gamma   119.98332398
_symmetry_Int_Tables_number   1
_chemical_formula_structural   Fe3H12C24O13
_chemical_formula_sum   'Fe6 H24 C48 O26'
_cell_volume   3230.04096793
_cell_formula_units_Z   2
loop_
 _symmetry_equiv_pos_site_id
 _symmetry_equiv_pos_as_xyz
  1  'x, y, z'
loop_
 _atom_site_type_symbol
 _atom_site_label
 _atom_site_symmetry_multiplicity
 _atom_site_fract_x
 _atom_site_fract_y
 _atom_site_fract_z
 _atom_site_occupancy
  Fe  Fe0  1  0.25969000  0.51936000  0.74993000  1
  Fe  Fe1  1  0.48070000  0.74034000  0.74994000  1
  Fe  Fe2  1  0.25966000  0.74034000  0.74993000  1
  Fe  Fe3  1  0.74032000  0.48065000  0.25006000  1
  Fe  Fe4  1  0.51934000  0.25968000  0.25006000  1
  Fe  Fe5  1  0.74036000  0.25966000  0.25006000  1
  H  H6  1  0.32712000  0.38230000  0.56082000  1
  H  H7  1  0.61779000  0.94488000  0.56078000  1
  H  H8  1  0.05513000  0.67281000  0.56078000  1
  H  H9  1  0.67287000  0.61771000  0.06082000  1
  H  H10  1  0.38223000  0.05514000  0.06079000  1
  H  H11  1  0.94488000  0.32720000  0.06079000  1
  H  H12  1  0.38229000  0.32718000  0.43923000  1
  H  H13  1  0.94484000  0.61769000  0.43918000  1
  H  H14  1  0.67293000  0.05516000  0.43920000  1
  H  H15  1  0.61769000  0.67281000  0.93922000  1
  H  H16  1  0.05515000  0.38231000  0.93917000  1
  H  H17  1  0.32708000  0.94485000  0.93919000  1
  H  H18  1  0.67288000  0.61770000  0.43918000  1
  H  H19  1  0.38221000  0.05513000  0.43921000  1
  H  H20  1  0.94487000  0.32719000  0.43921000  1
  H  H21  1  0.32713000  0.38229000  0.93918000  1
  H  H22  1  0.61777000  0.94487000  0.93921000  1
  H  H23  1  0.05512000  0.67280000  0.93921000  1
  H  H24  1  0.61771000  0.67282000  0.56077000  1
  H  H25  1  0.05516000  0.38231000  0.56082000  1
  H  H26  1  0.32707000  0.94484000  0.56080000  1
  H  H27  1  0.38231000  0.32719000  0.06077000  1
  H  H28  1  0.94485000  0.61770000  0.06082000  1
  H  H29  1  0.67292000  0.05515000  0.06080000  1
  C  C30  1  0.40246000  0.43288000  0.53371000  1
  C  C31  1  0.56718000  0.96962000  0.53368000  1
  C  C32  1  0.03038000  0.59750000  0.53367000  1
  C  C33  1  0.59753000  0.56711000  0.03371000  1
  C  C34  1  0.43284000  0.03039000  0.03368000  1
  C  C35  1  0.96961000  0.40250000  0.03367000  1
  C  C36  1  0.43286000  0.40249000  0.46633000  1
  C  C37  1  0.96959000  0.56711000  0.46630000  1
  C  C38  1  0.59756000  0.03039000  0.46631000  1
  C  C39  1  0.56711000  0.59750000  0.96632000  1
  C  C40  1  0.03041000  0.43290000  0.96629000  1
  C  C41  1  0.40244000  0.96960000  0.96631000  1
  C  C42  1  0.59753000  0.56711000  0.46629000  1
  C  C43  1  0.43282000  0.03038000  0.46632000  1
  C  C44  1  0.96962000  0.40250000  0.46633000  1
  C  C45  1  0.40247000  0.43289000  0.96629000  1
  C  C46  1  0.56716000  0.96961000  0.96631000  1
  C  C47  1  0.03038000  0.59749000  0.96632000  1
  C  C48  1  0.56713000  0.59750000  0.53367000  1
  C  C49  1  0.03040000  0.43288000  0.53370000  1
  C  C50  1  0.40244000  0.96961000  0.53369000  1
  C  C51  1  0.43288000  0.40250000  0.03367000  1
  C  C52  1  0.96959000  0.56711000  0.03370000  1
  C  C53  1  0.59756000  0.03040000  0.03369000  1
  C  C54  1  0.43590000  0.56412000  0.63879000  1
  C  C55  1  0.46927000  0.53070000  0.56810000  1
  C  C56  1  0.43590000  0.87178000  0.63878000  1
  C  C57  1  0.46928000  0.93856000  0.56810000  1
  C  C58  1  0.12821000  0.56410000  0.63880000  1
  C  C59  1  0.06143000  0.53070000  0.56811000  1
  C  C60  1  0.56413000  0.43586000  0.13882000  1
  C  C61  1  0.53073000  0.46929000  0.06811000  1
  C  C62  1  0.56413000  0.12827000  0.13881000  1
  C  C63  1  0.53072000  0.06144000  0.06811000  1
  C  C64  1  0.87176000  0.43588000  0.13883000  1
  C  C65  1  0.93857000  0.46929000  0.06811000  1
  C  C66  1  0.56410000  0.43588000  0.36121000  1
  C  C67  1  0.53072000  0.46929000  0.43189000  1
  C  C68  1  0.87179000  0.43590000  0.36120000  1
  C  C69  1  0.93856000  0.46929000  0.43189000  1
  C  C70  1  0.56410000  0.12822000  0.36122000  1
  C  C71  1  0.53072000  0.06144000  0.43189000  1
  C  C72  1  0.43587000  0.56413000  0.86118000  1
  C  C73  1  0.46927000  0.53071000  0.93189000  1
  C  C74  1  0.12824000  0.56411000  0.86117000  1
  C  C75  1  0.06143000  0.53070000  0.93188000  1
  C  C76  1  0.43587000  0.87173000  0.86119000  1
  C  C77  1  0.46927000  0.93855000  0.93189000  1
  O  O78  1  0.34494000  0.50078000  0.66694000  1
  O  O79  1  0.49926000  0.84418000  0.66693000  1
  O  O80  1  0.15581000  0.65502000  0.66693000  1
  O  O81  1  0.65508000  0.49920000  0.16695000  1
  O  O82  1  0.50077000  0.15587000  0.16694000  1
  O  O83  1  0.84417000  0.34497000  0.16694000  1
  O  O84  1  0.50080000  0.34497000  0.33307000  1
  O  O85  1  0.84418000  0.49922000  0.33305000  1
  O  O86  1  0.65509000  0.15583000  0.33307000  1
  O  O87  1  0.49919000  0.65504000  0.83307000  1
  O  O88  1  0.15586000  0.50080000  0.83304000  1
  O  O89  1  0.34489000  0.84412000  0.83307000  1
  O  O90  1  0.65506000  0.49923000  0.33305000  1
  O  O91  1  0.50075000  0.15583000  0.33307000  1
  O  O92  1  0.84420000  0.34498000  0.33306000  1
  O  O93  1  0.34492000  0.50080000  0.83305000  1
  O  O94  1  0.49924000  0.84414000  0.83306000  1
  O  O95  1  0.15584000  0.65504000  0.83306000  1
  O  O96  1  0.49921000  0.65503000  0.66693000  1
  O  O97  1  0.15582000  0.50078000  0.66695000  1
  O  O98  1  0.34491000  0.84416000  0.66693000  1
  O  O99  1  0.50082000  0.34496000  0.16693000  1
  O  O100  1  0.84415000  0.49921000  0.16696000  1
  O  O101  1  0.65511000  0.15587000  0.16693000  1
  O  O102  1  0.33333333  0.66666667  0.74998000  1
  O  O103  1  0.66666667  0.33333333  0.25002000  1
