# generated using pymatgen
data_CdH18C27(N3O2)2
_symmetry_space_group_name_H-M   'P 1'
_cell_length_a   11.39979000
_cell_length_b   13.78370735
_cell_length_c   24.90102000
_cell_angle_alpha   89.96284562
_cell_angle_beta   89.97008000
_cell_angle_gamma   114.32832835
_symmetry_Int_Tables_number   1
_chemical_formula_structural   CdH18C27(N3O2)2
_chemical_formula_sum   'Cd4 H72 C108 N24 O16'
_cell_volume   3565.27757167
_cell_formula_units_Z   4
loop_
 _symmetry_equiv_pos_site_id
 _symmetry_equiv_pos_as_xyz
  1  'x, y, z'
loop_
 _atom_site_type_symbol
 _atom_site_label
 _atom_site_symmetry_multiplicity
 _atom_site_fract_x
 _atom_site_fract_y
 _atom_site_fract_z
 _atom_site_occupancy
  Cd  Cd1  1  0.82129000  0.17436000  0.16239000  1.0
  Cd  Cd2  1  0.82103000  0.67471000  0.33764000  1.0
  Cd  Cd3  1  0.17872000  0.82564000  0.83760000  1.0
  Cd  Cd4  1  0.17898000  0.32529000  0.66236000  1.0
  H  H1  1  0.59071000  0.77979000  0.30143000  1.0
  H  H2  1  0.17092000  0.59717000  0.15241000  1.0
  H  H3  1  0.51600000  0.88830000  0.14912000  1.0
  H  H4  1  0.04217000  0.44587000  0.94247000  1.0
  H  H5  1  0.09064000  0.16685000  0.76449000  1.0
  H  H6  1  0.48426000  0.61155000  0.64907000  1.0
  H  H7  1  0.95752000  0.93607000  0.37070000  1.0
  H  H8  1  0.52658000  0.40943000  0.79816000  1.0
  H  H9  1  0.37398000  0.01348000  0.67393000  1.0
  H  H10  1  0.14626000  0.04537000  0.91443000  1.0
  H  H11  1  0.78464000  0.16438000  0.31531000  1.0
  H  H12  1  0.38742000  0.20776000  0.38658000  1.0
  H  H13  1  0.61259000  0.79224000  0.61342000  1.0
  H  H14  1  0.51575000  0.38845000  0.35092000  1.0
  H  H15  1  0.98649000  0.79901000  0.95429000  1.0
  H  H16  1  0.85355000  0.45446000  0.41439000  1.0
  H  H17  1  0.08787000  0.16693000  0.27183000  1.0
  H  H18  1  0.76372000  0.29552000  0.95523000  1.0
  H  H19  1  0.26010000  0.97585000  0.33898000  1.0
  H  H20  1  0.65770000  0.22520000  0.05697000  1.0
  H  H21  1  0.34230000  0.77479000  0.94302000  1.0
  H  H22  1  0.95724000  0.43605000  0.12953000  1.0
  H  H23  1  0.21536000  0.83561000  0.68468000  1.0
  H  H24  1  0.09092000  0.66676000  0.73555000  1.0
  H  H25  1  0.96604000  0.11344000  0.93220000  1.0
  H  H26  1  0.14646000  0.54554000  0.58560000  1.0
  H  H27  1  0.65745000  0.72503000  0.44334000  1.0
  H  H28  1  0.26042000  0.47628000  0.16097000  1.0
  H  H29  1  0.73958000  0.52371000  0.83902000  1.0
  H  H30  1  0.87112000  0.51961000  0.24882000  1.0
  H  H31  1  0.91213000  0.83306000  0.72817000  1.0
  H  H32  1  0.47343000  0.59057000  0.20184000  1.0
  H  H33  1  0.01352000  0.20099000  0.04571000  1.0
  H  H34  1  0.95778000  0.05406000  0.44260000  1.0
  H  H35  1  0.98659000  0.29892000  0.54570000  1.0
  H  H36  1  0.96626000  0.61350000  0.56791000  1.0
  H  H37  1  0.95784000  0.55413000  0.05752000  1.0
  H  H38  1  0.52563000  0.91068000  0.70162000  1.0
  H  H39  1  0.04223000  0.94594000  0.55740000  1.0
  H  H40  1  0.04249000  0.06393000  0.62929000  1.0
  H  H41  1  0.34256000  0.27497000  0.55665000  1.0
  H  H42  1  0.38761000  0.70813000  0.11304000  1.0
  H  H43  1  0.23629000  0.70448000  0.04477000  1.0
  H  H44  1  0.85375000  0.95463000  0.08557000  1.0
  H  H45  1  0.82909000  0.40283000  0.84758000  1.0
  H  H46  1  0.87185000  0.01973000  0.25110000  1.0
  H  H47  1  0.91204000  0.33383000  0.77181000  1.0
  H  H48  1  0.37421000  0.51324000  0.82606000  1.0
  H  H49  1  0.12889000  0.48039000  0.75118000  1.0
  H  H50  1  0.08797000  0.66617000  0.22819000  1.0
  H  H51  1  0.76359000  0.79539000  0.54494000  1.0
  H  H52  1  0.21549000  0.33548000  0.81522000  1.0
  H  H53  1  0.62603000  0.98652000  0.32607000  1.0
  H  H54  1  0.90909000  0.33324000  0.26445000  1.0
  H  H55  1  0.03374000  0.38649000  0.43209000  1.0
  H  H56  1  0.40929000  0.22020000  0.69857000  1.0
  H  H57  1  0.23642000  0.20461000  0.45505000  1.0
  H  H58  1  0.41034000  0.72027000  0.80149000  1.0
  H  H59  1  0.61240000  0.29187000  0.88695000  1.0
  H  H60  1  0.78452000  0.66452000  0.18478000  1.0
  H  H61  1  0.82932000  0.90287000  0.65266000  1.0
  H  H62  1  0.01342000  0.70108000  0.45430000  1.0
  H  H63  1  0.12815000  0.98026000  0.74890000  1.0
  H  H64  1  0.04276000  0.56394000  0.87046000  1.0
  H  H65  1  0.90937000  0.83315000  0.23551000  1.0
  H  H66  1  0.48401000  0.11170000  0.85087000  1.0
  H  H67  1  0.17069000  0.09713000  0.34733000  1.0
  H  H68  1  0.58966000  0.27972000  0.19850000  1.0
  H  H69  1  0.62580000  0.48676000  0.17394000  1.0
  H  H70  1  0.03397000  0.88656000  0.06779000  1.0
  H  H71  1  0.47438000  0.08932000  0.29838000  1.0
  H  H72  1  0.73990000  0.02414000  0.66102000  1.0
  C  C1  1  0.05515000  0.88135000  0.57783000  1.0
  C  C2  1  0.87321000  0.47810000  0.28536000  1.0
  C  C3  1  0.79795000  0.76689000  0.51053000  1.0
  C  C4  1  0.99721000  0.77775000  0.55794000  1.0
  C  C5  1  0.00280000  0.22225000  0.44206000  1.0
  C  C6  1  0.91972000  0.20194000  0.69469000  1.0
  C  C7  1  0.42286000  0.33908000  0.33355000  1.0
  C  C8  1  0.09736000  0.21660000  0.87280000  1.0
  C  C9  1  0.54408000  0.51769000  0.73408000  1.0
  C  C10  1  0.01718000  0.19457000  0.91786000  1.0
  C  C11  1  0.32858000  0.15683000  0.67965000  1.0
  C  C12  1  0.21162000  0.35484000  0.22010000  1.0
  C  C13  1  0.13426000  0.04985000  0.87156000  1.0
  C  C14  1  0.65018000  0.76114000  0.64621000  1.0
  C  C15  1  0.89016000  0.88589000  0.20800000  1.0
  C  C16  1  0.31378000  0.55538000  0.83267000  1.0
  C  C17  1  0.70709000  0.04992000  0.69703000  1.0
  C  C18  1  0.45593000  0.48231000  0.26592000  1.0
  C  C19  1  0.15541000  0.81933000  0.64872000  1.0
  C  C20  1  0.34999000  0.73882000  0.14602000  1.0
  C  C21  1  0.91880000  0.70235000  0.80541000  1.0
  C  C22  1  0.78839000  0.64516000  0.77989000  1.0
  C  C23  1  0.11044000  0.61422000  0.70804000  1.0
  C  C24  1  0.79805000  0.26697000  0.98963000  1.0
  C  C25  1  0.25313000  0.76982000  0.96064000  1.0
  C  C26  1  0.74565000  0.68364000  0.73357000  1.0
  C  C27  1  0.99715000  0.27770000  0.94207000  1.0
  C  C28  1  0.74688000  0.23018000  0.03936000  1.0
  C  C29  1  0.86688000  0.09912000  0.37647000  1.0
  C  C30  1  0.18122000  0.21436000  0.28922000  1.0
  C  C31  1  0.22779000  0.17643000  0.33165000  1.0
  C  C32  1  0.58368000  0.55676000  0.28879000  1.0
  C  C33  1  0.45626000  0.98123000  0.23434000  1.0
  C  C34  1  0.94485000  0.11864000  0.42217000  1.0
  C  C35  1  0.07204000  0.78732000  0.96460000  1.0
  C  C36  1  0.08028000  0.79805000  0.30530000  1.0
  C  C37  1  0.87394000  0.97825000  0.21459000  1.0
  C  C38  1  0.01733000  0.69464000  0.58219000  1.0
  C  C39  1  0.58436000  0.05526000  0.21155000  1.0
  C  C40  1  0.34983000  0.23886000  0.35379000  1.0
  C  C41  1  0.41633000  0.44324000  0.71120000  1.0
  C  C42  1  0.68623000  0.44462000  0.16733000  1.0
  C  C43  1  0.77204000  0.32371000  0.83175000  1.0
  C  C44  1  0.57715000  0.66092000  0.66645000  1.0
  C  C45  1  0.88957000  0.38578000  0.29196000  1.0
  C  C46  1  0.12607000  0.02175000  0.78541000  1.0
  C  C47  1  0.78861000  0.14574000  0.71992000  1.0
  C  C48  1  0.29295000  0.45072000  0.19714000  1.0
  C  C49  1  0.86143000  0.42061000  0.14382000  1.0
  C  C50  1  0.65002000  0.26118000  0.85398000  1.0
  C  C51  1  0.05510000  0.38130000  0.92207000  1.0
  C  C52  1  0.81879000  0.78564000  0.71078000  1.0
  C  C53  1  0.41565000  0.94474000  0.78845000  1.0
  C  C54  1  0.92797000  0.21268000  0.03539000  1.0
  C  C55  1  0.22797000  0.67629000  0.16825000  1.0
  C  C56  1  0.62133000  0.11999000  0.78929000  1.0
  C  C57  1  0.81864000  0.28616000  0.78915000  1.0
  C  C58  1  0.68647000  0.94447000  0.33285000  1.0
  C  C59  1  0.67081000  0.34313000  0.17975000  1.0
  C  C60  1  0.32920000  0.65687000  0.82025000  1.0
  C  C61  1  0.07215000  0.28730000  0.53531000  1.0
  C  C62  1  0.41347000  0.01316000  0.28038000  1.0
  C  C63  1  0.13858000  0.57939000  0.85618000  1.0
  C  C64  1  0.86178000  0.92071000  0.35641000  1.0
  C  C65  1  0.54375000  0.01877000  0.76565000  1.0
  C  C66  1  0.31354000  0.05553000  0.66715000  1.0
  C  C67  1  0.84460000  0.18067000  0.35128000  1.0
  C  C68  1  0.57700000  0.16123000  0.83354000  1.0
  C  C69  1  0.94491000  0.61870000  0.07792000  1.0
  C  C70  1  0.77221000  0.82357000  0.66835000  1.0
  C  C71  1  0.18137000  0.71384000  0.21085000  1.0
  C  C72  1  0.25431000  0.81565000  0.23378000  1.0
  C  C73  1  0.62140000  0.61923000  0.71054000  1.0
  C  C74  1  0.10985000  0.11411000  0.79199000  1.0
  C  C75  1  0.12679000  0.52189000  0.71464000  1.0
  C  C76  1  0.74569000  0.18434000  0.76621000  1.0
  C  C77  1  0.86575000  0.95015000  0.12844000  1.0
  C  C78  1  0.42301000  0.83877000  0.16646000  1.0
  C  C79  1  0.98268000  0.30536000  0.41781000  1.0
  C  C80  1  0.15537000  0.31926000  0.85118000  1.0
  C  C81  1  0.20206000  0.23311000  0.48947000  1.0
  C  C82  1  0.00286000  0.72230000  0.05793000  1.0
  C  C83  1  0.90249000  0.28333000  0.37281000  1.0
  C  C84  1  0.98282000  0.80542000  0.08214000  1.0
  C  C85  1  0.13461000  0.54996000  0.62849000  1.0
  C  C86  1  0.37868000  0.88001000  0.21071000  1.0
  C  C87  1  0.58654000  0.98684000  0.71962000  1.0
  C  C88  1  0.37861000  0.38077000  0.28946000  1.0
  C  C89  1  0.67143000  0.84317000  0.32035000  1.0
  C  C90  1  0.21140000  0.85426000  0.28008000  1.0
  C  C91  1  0.86694000  0.59921000  0.12367000  1.0
  C  C92  1  0.84463000  0.68074000  0.14882000  1.0
  C  C93  1  0.25332000  0.26996000  0.53912000  1.0
  C  C94  1  0.92785000  0.71269000  0.46469000  1.0
  C  C95  1  0.13313000  0.90088000  0.62353000  1.0
  C  C96  1  0.08121000  0.29765000  0.19459000  1.0
  C  C97  1  0.09752000  0.71667000  0.62719000  1.0
  C  C98  1  0.25436000  0.31636000  0.26643000  1.0
  C  C99  1  0.20196000  0.73303000  0.01036000  1.0
  C  C100  1  0.90265000  0.78340000  0.12720000  1.0
  C  C101  1  0.29292000  0.95008000  0.30296000  1.0
  C  C102  1  0.74669000  0.73004000  0.46087000  1.0
  C  C103  1  0.70705000  0.54927000  0.80286000  1.0
  C  C104  1  0.86540000  0.45004000  0.37151000  1.0
  C  C105  1  0.13307000  0.40079000  0.87633000  1.0
  C  C106  1  0.13823000  0.07929000  0.64359000  1.0
  C  C107  1  0.58689000  0.48584000  0.78017000  1.0
  C  C108  1  0.41312000  0.51416000  0.21983000  1.0
  N  N1  1  0.17155000  0.30305000  0.56719000  1.0
  N  N2  1  0.80829000  0.99377000  0.35605000  1.0
  N  N3  1  0.80821000  0.49384000  0.14418000  1.0
  N  N4  1  0.14188000  0.98293000  0.83494000  1.0
  N  N5  1  0.19172000  0.00623000  0.64395000  1.0
  N  N6  1  0.82846000  0.69695000  0.43280000  1.0
  N  N7  1  0.91338000  0.75511000  0.51272000  1.0
  N  N8  1  0.78100000  0.82984000  0.33504000  1.0
  N  N9  1  0.21966000  0.67037000  0.83489000  1.0
  N  N10  1  0.85813000  0.01707000  0.16506000  1.0
  N  N11  1  0.91340000  0.25508000  0.98736000  1.0
  N  N12  1  0.14240000  0.48302000  0.66512000  1.0
  N  N13  1  0.08660000  0.74492000  0.01264000  1.0
  N  N14  1  0.08663000  0.24489000  0.48728000  1.0
  N  N15  1  0.19179000  0.50615000  0.85581000  1.0
  N  N16  1  0.78035000  0.32963000  0.16511000  1.0
  N  N17  1  0.21901000  0.17016000  0.66496000  1.0
  N  N18  1  0.88496000  0.36838000  0.34711000  1.0
  N  N19  1  0.11469000  0.13152000  0.84714000  1.0
  N  N20  1  0.85760000  0.51697000  0.33488000  1.0
  N  N21  1  0.88532000  0.86848000  0.15286000  1.0
  N  N22  1  0.11505000  0.63162000  0.65289000  1.0
  N  N23  1  0.17134000  0.80294000  0.93262000  1.0
  N  N24  1  0.82867000  0.19706000  0.06738000  1.0
  O  O1  1  0.98724000  0.73764000  0.27498000  1.0
  O  O2  1  0.01276000  0.26235000  0.72502000  1.0
  O  O3  1  0.01254000  0.76245000  0.77515000  1.0
  O  O4  1  0.98747000  0.23755000  0.22484000  1.0
  O  O5  1  0.59619000  0.56600000  0.33976000  1.0
  O  O6  1  0.93267000  0.68670000  0.85466000  1.0
  O  O7  1  0.59614000  0.06653000  0.16065000  1.0
  O  O8  1  0.40387000  0.93347000  0.83935000  1.0
  O  O9  1  0.67423000  0.60869000  0.25613000  1.0
  O  O10  1  0.40382000  0.43400000  0.66024000  1.0
  O  O11  1  0.06493000  0.81447000  0.35436000  1.0
  O  O12  1  0.67582000  0.10467000  0.24418000  1.0
  O  O13  1  0.93507000  0.18552000  0.64564000  1.0
  O  O14  1  0.32578000  0.39131000  0.74387000  1.0
  O  O15  1  0.32419000  0.89533000  0.75581000  1.0
  O  O16  1  0.06734000  0.31330000  0.14534000  1.0
