# generated using pymatgen
data_HoH6(C2O)6
_symmetry_space_group_name_H-M   'P 1'
_cell_length_a   9.38307000
_cell_length_b   10.31183000
_cell_length_c   11.21447000
_cell_angle_alpha   75.31836000
_cell_angle_beta   79.25564000
_cell_angle_gamma   67.20299000
_symmetry_Int_Tables_number   1
_chemical_formula_structural   HoH6(C2O)6
_chemical_formula_sum   'Ho2 H12 C24 O12'
_cell_volume   962.90378282
_cell_formula_units_Z   2
loop_
 _symmetry_equiv_pos_site_id
 _symmetry_equiv_pos_as_xyz
  1  'x, y, z'
loop_
 _atom_site_type_symbol
 _atom_site_label
 _atom_site_symmetry_multiplicity
 _atom_site_fract_x
 _atom_site_fract_y
 _atom_site_fract_z
 _atom_site_occupancy
  Ho  Ho1  1  0.96004000  0.20797000  0.80154000  1.0
  Ho  Ho2  1  0.03995000  0.79203000  0.19845000  1.0
  H  H1  1  0.67136000  0.80915000  0.15066000  1.0
  H  H2  1  0.61361000  0.13504000  0.81666000  1.0
  H  H3  1  0.43098000  0.42576000  0.72547000  1.0
  H  H4  1  0.76853000  0.49703000  0.42503000  1.0
  H  H5  1  0.28836000  0.90292000  0.52699000  1.0
  H  H6  1  0.45885000  0.20468000  0.59731000  1.0
  H  H7  1  0.32863000  0.19085000  0.84933000  1.0
  H  H8  1  0.38638000  0.86496000  0.18333000  1.0
  H  H9  1  0.56902000  0.57424000  0.27453000  1.0
  H  H10  1  0.23146000  0.50297000  0.57496000  1.0
  H  H11  1  0.71164000  0.09708000  0.47301000  1.0
  H  H12  1  0.54114000  0.79532000  0.40269000  1.0
  C  C1  1  0.66127000  0.96756000  0.98083000  1.0
  C  C2  1  0.59640000  0.89137000  0.08427000  1.0
  C  C3  1  0.56356000  0.07590000  0.89642000  1.0
  C  C4  1  0.83174000  0.93872000  0.96259000  1.0
  C  C5  1  0.61080000  0.45601000  0.58365000  1.0
  C  C6  1  0.45933000  0.45877000  0.62665000  1.0
  C  C7  1  0.65139000  0.49775000  0.45656000  1.0
  C  C8  1  0.35945000  0.06042000  0.56864000  1.0
  C  C9  1  0.38135000  0.94468000  0.51422000  1.0
  C  C10  1  0.47855000  0.11515000  0.55436000  1.0
  C  C11  1  0.21126000  0.12350000  0.64349000  1.0
  C  C12  1  0.73132000  0.39983000  0.67187000  1.0
  C  C13  1  0.33873000  0.03244000  0.01917000  1.0
  C  C14  1  0.40359000  0.10863000  0.91573000  1.0
  C  C15  1  0.43643000  0.92410000  0.10358000  1.0
  C  C16  1  0.16826000  0.06128000  0.03741000  1.0
  C  C17  1  0.38920000  0.54399000  0.41634000  1.0
  C  C18  1  0.54066000  0.54123000  0.37334000  1.0
  C  C19  1  0.34861000  0.50224000  0.54343000  1.0
  C  C20  1  0.64055000  0.93958000  0.43136000  1.0
  C  C21  1  0.61864000  0.05532000  0.48577000  1.0
  C  C22  1  0.52144000  0.88485000  0.44563000  1.0
  C  C23  1  0.78874000  0.87650000  0.35651000  1.0
  C  C24  1  0.26867000  0.60016000  0.32813000  1.0
  O  O1  1  0.88272000  0.02317000  0.87817000  1.0
  O  O2  1  0.92242000  0.83114000  0.03301000  1.0
  O  O3  1  0.86969000  0.39677000  0.63422000  1.0
  O  O4  1  0.19038000  0.22910000  0.69409000  1.0
  O  O5  1  0.10433000  0.06901000  0.66153000  1.0
  O  O6  1  0.69963000  0.34279000  0.78577000  1.0
  O  O7  1  0.11728000  0.97683000  0.12183000  1.0
  O  O8  1  0.07757000  0.16886000  0.96699000  1.0
  O  O9  1  0.13031000  0.60323000  0.36577000  1.0
  O  O10  1  0.80962000  0.77090000  0.30591000  1.0
  O  O11  1  0.89567000  0.93098000  0.33847000  1.0
  O  O12  1  0.30036000  0.65720000  0.21423000  1.0
