# generated using pymatgen
data_H24C41(NO)8
_symmetry_space_group_name_H-M   'P 1'
_cell_length_a   16.49390000
_cell_length_b   16.49390000
_cell_length_c   65.97500000
_cell_angle_alpha   90.00010000
_cell_angle_beta   90.00010000
_cell_angle_gamma   90.00000000
_symmetry_Int_Tables_number   1
_chemical_formula_structural   H24C41(NO)8
_chemical_formula_sum   'H96 C164 N32 O32'
_cell_volume   17948.41543738
_cell_formula_units_Z   4
loop_
 _symmetry_equiv_pos_site_id
 _symmetry_equiv_pos_as_xyz
  1  'x, y, z'
loop_
 _atom_site_type_symbol
 _atom_site_label
 _atom_site_symmetry_multiplicity
 _atom_site_fract_x
 _atom_site_fract_y
 _atom_site_fract_z
 _atom_site_occupancy
  C  1  1  0.90825300  0.98075000  0.17315600  1
  C  2  1  0.88757600  0.91366400  0.16092600  1
  C  3  1  0.83413500  0.92287700  0.14450600  1
  C  4  1  0.79704200  0.99852200  0.13996200  1
  C  5  1  0.82564100  0.06667000  0.15103500  1
  C  6  1  0.87860600  0.05797600  0.16762600  1
  C  7  1  0.73537700  0.00539200  0.12276000  1
  C  8  1  0.79254300  0.01053800  0.10458800  1
  C  9  1  0.83043900  0.08499100  0.09929300  1
  C  10  1  0.88276100  0.09143000  0.08254100  1
  C  11  1  0.90166800  0.02268300  0.07069600  1
  C  12  1  0.87022600  0.94683700  0.07682300  1
  C  13  1  0.81803200  0.94095000  0.09361600  1
  C  14  1  0.67446900  0.93565700  0.12223100  1
  C  15  1  0.67633700  0.07639600  0.12429900  1
  C  16  1  0.64442200  0.11465700  0.10671600  1
  C  17  1  0.58902500  0.17906100  0.10802600  1
  C  18  1  0.56069600  0.20555700  0.12708400  1
  C  19  1  0.58553500  0.16360300  0.14463000  1
  C  20  1  0.64096000  0.09913100  0.14312300  1
  C  21  1  0.64649000  0.89808900  0.14032400  1
  C  22  1  0.59057300  0.83396200  0.13994600  1
  C  23  1  0.55786900  0.80702500  0.12137200  1
  C  24  1  0.57860500  0.84844900  0.10342200  1
  C  25  1  0.63447900  0.91280300  0.10400600  1
  C  42  1  0.52069400  0.27835900  0.12885000  1
  C  43  1  0.95013600  0.96776300  0.19101300  1
  C  46  1  0.94926800  0.03080200  0.05350400  1
  C  48  1  0.51871500  0.73357300  0.12038900  1
  C  50  1  0.01874100  0.91134300  0.67767700  1
  C  51  1  0.08671100  0.88924700  0.66592000  1
  C  52  1  0.07784100  0.83785500  0.64909100  1
  C  53  1  0.00156400  0.80414200  0.64366300  1
  C  54  1  0.93301100  0.83401100  0.65437200  1
  C  55  1  0.94131800  0.88494500  0.67136800  1
  C  56  1  0.99438500  0.74578700  0.62578200  1
  C  57  1  0.99242400  0.80626100  0.60825300  1
  C  58  1  0.91926600  0.84562100  0.60248700  1
  C  59  1  0.91572600  0.89798000  0.58567300  1
  C  60  1  0.98647600  0.91578900  0.57451600  1
  C  61  1  0.06126900  0.88466000  0.58142100  1
  C  62  1  0.06407800  0.83233700  0.59822300  1
  C  63  1  0.06247100  0.68310600  0.62469700  1
  C  64  1  0.92175800  0.68849600  0.62647200  1
  C  65  1  0.88406000  0.65989500  0.60845900  1
  C  66  1  0.81879900  0.60526000  0.60898600  1
  C  67  1  0.79069200  0.57435200  0.62765100  1
  C  68  1  0.83174400  0.59615900  0.64558000  1
  C  69  1  0.89708300  0.65081000  0.64485700  1
  C  70  1  0.09881200  0.65074600  0.64248700  1
  C  71  1  0.16216300  0.59399500  0.64152300  1
  C  72  1  0.18905700  0.56455300  0.62261400  1
  C  73  1  0.14870100  0.58964200  0.60486500  1
  C  74  1  0.08523600  0.64635300  0.60603500  1
  C  91  1  0.71798300  0.53366400  0.62875600  1
  C  92  1  0.03078700  0.95169100  0.69577700  1
  C  95  1  0.98094700  0.95432800  0.55599700  1
  C  97  1  0.26255000  0.52586100  0.62124700  1
  C  99  1  0.08371000  0.99244700  0.82524400  1
  C  100  1  0.10257800  0.92344600  0.83695100  1
  C  101  1  0.15733300  0.92930200  0.85321700  1
  C  102  1  0.19743300  0.00317800  0.85802700  1
  C  103  1  0.17106600  0.07319900  0.84733100  1
  C  104  1  0.11688000  0.06793000  0.83091300  1
  C  105  1  0.25933300  0.00683900  0.87524500  1
  C  106  1  0.20246000  0.01170200  0.89348000  1
  C  107  1  0.16533400  0.08628300  0.89900200  1
  C  108  1  0.11318800  0.09251300  0.91579200  1
  C  109  1  0.09368400  0.02344100  0.92745500  1
  C  110  1  0.12438100  0.94756700  0.92112100  1
  C  111  1  0.17641300  0.94190400  0.90429000  1
  C  112  1  0.31859900  0.93572300  0.87550500  1
  C  113  1  0.31992700  0.07663600  0.87396100  1
  C  114  1  0.35147100  0.11464500  0.89161700  1
  C  115  1  0.40771500  0.17836500  0.89044300  1
  C  116  1  0.43706800  0.20452000  0.87145200  1
  C  117  1  0.41272500  0.16260600  0.85385800  1
  C  118  1  0.35664900  0.09866100  0.85524200  1
  C  119  1  0.34454600  0.89723000  0.85734800  1
  C  120  1  0.40007800  0.83272100  0.85754500  1
  C  121  1  0.43437400  0.80627800  0.87598100  1
  C  122  1  0.41519100  0.84806600  0.89398000  1
  C  123  1  0.35969300  0.91273900  0.89357400  1
  C  140  1  0.47709200  0.27733400  0.86975000  1
  C  141  1  0.04004000  0.98383700  0.80758000  1
  C  144  1  0.04606600  0.03122500  0.94465100  1
  C  146  1  0.47410400  0.73317200  0.87690400  1
  C  148  1  0.99035200  0.91559600  0.32060200  1
  C  149  1  0.92039200  0.89634700  0.33190400  1
  C  150  1  0.92551600  0.84368500  0.34860500  1
  C  151  1  0.99971800  0.80619300  0.35431900  1
  C  152  1  0.07033700  0.83255400  0.34386800  1
  C  153  1  0.06581700  0.88463400  0.32701600  1
  C  154  1  0.00292100  0.74806200  0.37232600  1
  C  155  1  0.00300000  0.80880000  0.38981300  1
  C  156  1  0.07530300  0.84956000  0.39566500  1
  C  157  1  0.07749500  0.90206500  0.41246500  1
  C  158  1  0.00609700  0.91881000  0.42345300  1
  C  159  1  0.93209700  0.88602300  0.41651500  1
  C  160  1  0.93064200  0.83354200  0.39973900  1
  C  161  1  0.93376100  0.68646100  0.37295000  1
  C  162  1  0.07481500  0.68972500  0.37230600  1
  C  163  1  0.11273200  0.66378500  0.39053700  1
  C  164  1  0.17749900  0.60850100  0.39046300  1
  C  165  1  0.20498400  0.57440500  0.37208600  1
  C  166  1  0.16359800  0.59358700  0.35401400  1
  C  167  1  0.09873700  0.64886200  0.35428200  1
  C  168  1  0.89595900  0.65702500  0.35504000  1
  C  169  1  0.83223900  0.60058500  0.35576800  1
  C  170  1  0.80642000  0.56857100  0.37450800  1
  C  171  1  0.84777200  0.59115100  0.39232100  1
  C  172  1  0.91145600  0.64765500  0.39139300  1
  C  189  1  0.27733000  0.53282000  0.37128700  1
  C  190  1  0.98300300  0.95844300  0.30277800  1
  C  193  1  0.01034800  0.95634000  0.44208200  1
  C  195  1  0.73330500  0.52916000  0.37586000  1
  C  197  1  0.94327000  0.97661200  0.22628900  1
  C  198  1  0.91322200  0.90495000  0.23538100  1
  C  199  1  0.93401500  0.88775300  0.25569500  1
  C  200  1  0.98185100  0.94163600  0.26717500  1
  C  201  1  0.01218300  0.01333400  0.25806900  1
  C  203  1  0.99176400  0.03041600  0.23764100  1
  C  213  1  0.02003200  0.94208500  0.73092600  1
  C  214  1  0.09091800  0.91039200  0.74004800  1
  C  215  1  0.10830000  0.93055100  0.76038900  1
  C  216  1  0.05537400  0.97946000  0.77186600  1
  C  217  1  0.98440100  0.01135600  0.76273700  1
  C  219  1  0.96709100  0.99151200  0.74228200  1
  C  229  1  0.96768000  0.98999800  0.01923400  1
  C  230  1  0.05248200  0.98834600  0.01574400  1
  C  231  1  0.08136800  0.98837400  0.99554500  1
  C  232  1  0.02785500  0.99014100  0.97887800  1
  C  233  1  0.94306600  0.98814600  0.98236800  1
  C  235  1  0.91418200  0.98809400  0.00256600  1
  C  245  1  0.00070200  0.92083000  0.52049800  1
  C  246  1  0.00452200  0.99459100  0.50949400  1
  C  247  1  0.00278700  0.99199900  0.48801200  1
  C  248  1  0.99742200  0.91754400  0.47750200  1
  C  249  1  0.99391200  0.84415000  0.48853900  1
  C  251  1  0.99639100  0.84675400  0.50991100  1
  C  261  1  0.55686300  0.59198500  0.12401500  1
  C  262  1  0.63036500  0.54811000  0.12499400  1
  C  263  1  0.62767000  0.46269400  0.12473500  1
  C  264  1  0.55343700  0.42060000  0.12393500  1
  C  265  1  0.47958700  0.46432100  0.12290300  1
  C  267  1  0.48224800  0.55018800  0.12297300  1
  C  277  1  0.40439200  0.56617200  0.62322200  1
  C  278  1  0.44745600  0.64021200  0.62386500  1
  C  279  1  0.53290500  0.63849600  0.62358100  1
  C  280  1  0.57590300  0.56473600  0.62305800  1
  C  281  1  0.53297300  0.49034600  0.62226300  1
  C  283  1  0.44706300  0.49201700  0.62236400  1
  C  293  1  0.43714300  0.59099700  0.87393200  1
  C  294  1  0.36415500  0.54619800  0.87320000  1
  C  295  1  0.36791400  0.46082600  0.87354400  1
  C  296  1  0.44268100  0.41964800  0.87423400  1
  C  297  1  0.51601600  0.46428900  0.87504500  1
  C  299  1  0.51229900  0.55011500  0.87486300  1
  C  309  1  0.59103600  0.56842700  0.37496100  1
  C  310  1  0.54723200  0.64207100  0.37476700  1
  C  311  1  0.46185900  0.63953400  0.37556900  1
  C  312  1  0.41959700  0.56536000  0.37620400  1
  C  313  1  0.46328500  0.49136200  0.37657400  1
  C  315  1  0.54914000  0.49384900  0.37594200  1
  H  26  1  0.57195800  0.20834600  0.09501400  1
  H  27  1  0.66295000  0.09747000  0.09257900  1
  H  28  1  0.56657000  0.18184500  0.15869500  1
  H  29  1  0.65755400  0.07052000  0.15621700  1
  H  30  1  0.66879500  0.91515900  0.15412500  1
  H  31  1  0.57700400  0.80468500  0.15321600  1
  H  32  1  0.55657100  0.82963300  0.08969000  1
  H  33  1  0.64837500  0.94082200  0.09063700  1
  H  34  1  0.79786300  0.88458400  0.09757300  1
  H  35  1  0.88473800  0.89509300  0.06905300  1
  H  36  1  0.90561500  0.14726800  0.07886100  1
  H  37  1  0.81828600  0.13652000  0.10735200  1
  H  38  1  0.80571200  0.12368500  0.14762200  1
  H  39  1  0.81918400  0.87211800  0.13643900  1
  H  40  1  0.90785900  0.85665500  0.16444100  1
  H  41  1  0.89351100  0.10815700  0.17596800  1
  H  44  1  0.46368400  0.72855000  0.11441400  1
  H  45  1  0.46938100  0.28289000  0.13664000  1
  H  47  1  0.99137400  0.07400300  0.05304100  1
  H  49  1  0.99346400  0.92563600  0.19142100  1
  H  75  1  0.79035500  0.59031600  0.59570000  1
  H  76  1  0.90261500  0.68007500  0.59457500  1
  H  77  1  0.81265200  0.57497100  0.65937500  1
  H  78  1  0.92521400  0.66480300  0.65820500  1
  H  79  1  0.08175700  0.67075700  0.65650700  1
  H  80  1  0.19101000  0.57753500  0.65464600  1
  H  81  1  0.16778300  0.57028900  0.59090500  1
  H  82  1  0.05817300  0.66363200  0.59279100  1
  H  83  1  0.11949300  0.81061100  0.60249800  1
  H  84  1  0.11385500  0.89697300  0.57375900  1
  H  85  1  0.86049300  0.91969100  0.58110300  1
  H  86  1  0.86630500  0.83294400  0.60988400  1
  H  87  1  0.87581400  0.81655000  0.65034400  1
  H  88  1  0.12909100  0.82204300  0.64133000  1
  H  89  1  0.14387700  0.90726500  0.67000600  1
  H  90  1  0.89060800  0.90095100  0.67937500  1
  H  93  1  0.26676400  0.46828800  0.61699500  1
  H  94  1  0.71288100  0.48254800  0.63660900  1
  H  96  1  0.94811300  0.00443200  0.55447800  1
  H  98  1  0.07345200  0.99441000  0.69657700  1
  H  124  1  0.42418900  0.20781300  0.90348000  1
  H  125  1  0.33202700  0.09788100  0.90570800  1
  H  126  1  0.43241700  0.18060800  0.83983600  1
  H  127  1  0.34016500  0.07025800  0.84210800  1
  H  128  1  0.32158000  0.91440000  0.84362500  1
  H  129  1  0.41258400  0.80314600  0.84425300  1
  H  130  1  0.43845400  0.82964200  0.90762000  1
  H  131  1  0.34715500  0.94122500  0.90696600  1
  H  132  1  0.19594800  0.88550100  0.90016600  1
  H  133  1  0.10937600  0.89563600  0.92875300  1
  H  134  1  0.09086800  0.14840100  0.91962700  1
  H  135  1  0.17796500  0.13804500  0.89108400  1
  H  136  1  0.19316900  0.12918700  0.85096000  1
  H  137  1  0.17079800  0.87742200  0.86099700  1
  H  138  1  0.07958900  0.86771600  0.83321100  1
  H  139  1  0.10346300  0.11925000  0.82284300  1
  H  142  1  0.53065900  0.72907700  0.88195800  1
  H  143  1  0.52899700  0.28163800  0.86220500  1
  H  145  1  0.00433100  0.07476300  0.94521000  1
  H  147  1  0.98549800  0.95809400  0.80790700  1
  H  173  1  0.20606100  0.59538200  0.40385400  1
  H  174  1  0.09459600  0.68615400  0.40424200  1
  H  175  1  0.18233100  0.57027600  0.34040600  1
  H  176  1  0.07065900  0.66131400  0.34082900  1
  H  177  1  0.91271100  0.67833300  0.34112300  1
  H  178  1  0.80275800  0.58572300  0.34261600  1
  H  179  1  0.82944700  0.56995500  0.40617800  1
  H  180  1  0.93926600  0.66311600  0.40468500  1
  H  181  1  0.87570100  0.81087300  0.39539300  1
  H  182  1  0.87916300  0.89728700  0.42413300  1
  H  183  1  0.13222100  0.92458800  0.41717000  1
  H  184  1  0.12873700  0.83738000  0.38842900  1
  H  185  1  0.12638900  0.81246800  0.34812000  1
  H  186  1  0.87309600  0.83027100  0.35615900  1
  H  187  1  0.86468700  0.91791900  0.32765100  1
  H  188  1  0.11780000  0.89859000  0.31927800  1
  H  191  1  0.72982500  0.47112500  0.37974700  1
  H  192  1  0.28242900  0.48224400  0.36322500  1
  H  194  1  0.03513800  0.01089200  0.44355000  1
  H  196  1  0.95439600  0.01155400  0.30269000  1
  H  202  1  0.91183700  0.83606100  0.26228900  1
  H  204  1  0.01257600  0.08254200  0.23102200  1
  H  218  1  0.15962300  0.90747500  0.76697000  1
  H  220  1  0.91566600  0.01376300  0.73561500  1
  H  234  1  0.14266800  0.98741900  0.99305100  1
  H  236  1  0.85288000  0.98694200  0.00505700  1
  H  250  1  0.00533500  0.04509300  0.48003300  1
  H  252  1  0.99419700  0.79321900  0.51778800  1
  H  266  1  0.68118700  0.43114900  0.12532000  1
  H  268  1  0.42920900  0.58218100  0.12227600  1
  H  282  1  0.56380400  0.69240400  0.62405600  1
  H  284  1  0.41569300  0.43857300  0.62189100  1
  H  298  1  0.31476100  0.42862200  0.87311700  1
  H  300  1  0.56497300  0.58273800  0.87541700  1
  H  314  1  0.43042500  0.69316600  0.37538400  1
  H  316  1  0.58102500  0.44068700  0.37612100  1
  N  205  1  0.06262100  0.06535500  0.26952500  1
  N  206  1  0.86220900  0.85287300  0.22403900  1
  N  211  1  0.92055500  0.99563800  0.20763300  1
  N  212  1  0.99572900  0.91980700  0.28619000  1
  N  221  1  0.93350300  0.06305000  0.77415600  1
  N  222  1  0.14226000  0.85878400  0.72866300  1
  N  227  1  0.00154000  0.92098000  0.71211900  1
  N  228  1  0.07810700  0.99368000  0.79079400  1
  N  237  1  0.88912400  0.98426300  0.96572100  1
  N  238  1  0.10644600  0.98463800  0.03238900  1
  N  243  1  0.93377400  0.98914900  0.03749800  1
  N  244  1  0.06168000  0.98928300  0.96060300  1
  N  253  1  0.98889200  0.76942200  0.47799000  1
  N  254  1  0.01183900  0.06873900  0.52008500  1
  N  259  1  0.00321900  0.91322500  0.54046500  1
  N  260  1  0.99496900  0.91166000  0.45750600  1
  N  269  1  0.40544900  0.42177800  0.12137600  1
  N  270  1  0.70516900  0.59033500  0.12597300  1
  N  275  1  0.56284000  0.67167400  0.12430600  1
  N  276  1  0.56111400  0.34105600  0.12347900  1
  N  285  1  0.57631500  0.41659100  0.62098800  1
  N  286  1  0.40439300  0.71456000  0.62470100  1
  N  291  1  0.32464600  0.57129500  0.62376900  1
  N  292  1  0.65542700  0.57343200  0.62297800  1
  N  301  1  0.59071700  0.42269600  0.87647400  1
  N  302  1  0.28880300  0.58748000  0.87235400  1
  N  307  1  0.43009900  0.67061300  0.87361800  1
  N  308  1  0.43593700  0.34003100  0.87475500  1
  N  317  1  0.42078500  0.41714800  0.37796100  1
  N  318  1  0.58951200  0.71685000  0.37383700  1
  N  323  1  0.67068200  0.57437500  0.37400500  1
  N  324  1  0.34000300  0.57334300  0.37665000  1
  O  207  1  0.03225800  0.13493800  0.27109000  1
  O  208  1  0.89258100  0.78336500  0.22229900  1
  O  209  1  0.79345100  0.84641000  0.23208300  1
  O  210  1  0.13162800  0.07172100  0.26161300  1
  O  223  1  0.86318600  0.03438200  0.77566600  1
  O  224  1  0.21225900  0.88806800  0.72698600  1
  O  225  1  0.14754800  0.78975900  0.73661500  1
  O  226  1  0.92889600  0.13219400  0.76624100  1
  O  239  1  0.84184000  0.04400700  0.96548200  1
  O  240  1  0.15353800  0.04453300  0.03262400  1
  O  241  1  0.14816500  0.92090300  0.03201200  1
  O  242  1  0.84761200  0.92039400  0.96609900  1
  O  255  1  0.04895200  0.72493600  0.48168800  1
  O  256  1  0.95324200  0.11507300  0.51633800  1
  O  257  1  0.07654300  0.10474000  0.51560300  1
  O  258  1  0.92529200  0.73150800  0.48247200  1
  O  271  1  0.35951600  0.43770400  0.13604000  1
  O  272  1  0.74935800  0.57447600  0.11097000  1
  O  273  1  0.74340700  0.57346900  0.14189800  1
  O  274  1  0.36901100  0.43860000  0.10518700  1
  O  287  1  0.56086200  0.37123600  0.63579600  1
  O  288  1  0.41959800  0.75837100  0.60958800  1
  O  289  1  0.42096800  0.75356900  0.64052900  1
  O  290  1  0.55990500  0.37913300  0.60491800  1
  O  303  1  0.63598800  0.43886800  0.86169900  1
  O  304  1  0.24539000  0.57136400  0.88748100  1
  O  305  1  0.25016700  0.56986600  0.85654100  1
  O  306  1  0.62746000  0.44027900  0.89256900  1
  O  319  1  0.43519400  0.37242100  0.36296800  1
  O  320  1  0.57542400  0.75995500  0.38914300  1
  O  321  1  0.57101400  0.75627100  0.35820800  1
  O  322  1  0.43911300  0.37932800  0.39384700  1
