# generated using pymatgen
data_H15C20N4O
_symmetry_space_group_name_H-M   'P 1'
_cell_length_a   35.70004142
_cell_length_b   35.70220000
_cell_length_c   52.04670000
_cell_angle_alpha   89.34840000
_cell_angle_beta   90.00000000
_cell_angle_gamma   119.99800000
_symmetry_Int_Tables_number   1
_chemical_formula_structural   H15C20N4O
_chemical_formula_sum   'H180 C240 N48 O12'
_cell_volume   57445.87307844
_cell_formula_units_Z   12
loop_
 _symmetry_equiv_pos_site_id
 _symmetry_equiv_pos_as_xyz
  1  'x, y, z'
loop_
 _atom_site_type_symbol
 _atom_site_label
 _atom_site_symmetry_multiplicity
 _atom_site_fract_x
 _atom_site_fract_y
 _atom_site_fract_z
 _atom_site_occupancy
  H  7  1  0.66936300  0.17932000  0.75880100  1
  H  16  1  0.79186200  0.30278000  0.74499100  1
  H  17  1  0.68831200  0.21072300  0.84935100  1
  H  18  1  0.77909900  0.26760700  0.65471800  1
  H  19  1  0.74986300  0.31060700  0.77682700  1
  H  20  1  0.66635600  0.21316900  0.72041500  1
  H  31  1  0.48774700  0.31353500  0.42636900  1
  H  40  1  0.49223300  0.19323500  0.41206100  1
  H  41  1  0.49769900  0.28962500  0.51689400  1
  H  42  1  0.46831500  0.20874100  0.32220000  1
  H  43  1  0.54014200  0.23383200  0.44446000  1
  H  44  1  0.52478800  0.31912100  0.38806700  1
  H  55  1  0.79500100  0.49025400  0.09054100  1
  H  64  1  0.67269300  0.49032000  0.07643600  1
  H  65  1  0.76101300  0.47834100  0.18093500  1
  H  66  1  0.71034000  0.51379600  0.98603900  1
  H  67  1  0.66310800  0.43938200  0.10844800  1
  H  68  1  0.76203700  0.45357300  0.05224000  1
  H  79  1  0.31868400  0.79862600  0.26099400  1
  H  88  1  0.19233900  0.68065600  0.24594400  1
  H  89  1  0.29205900  0.76532000  0.35125900  1
  H  90  1  0.20968500  0.72380500  0.15677200  1
  H  91  1  0.22898800  0.66852700  0.27900400  1
  H  92  1  0.32102500  0.76669600  0.22259000  1
  H  103  1  0.41715300  0.63313900  0.92194300  1
  H  112  1  0.44288900  0.77301000  0.90956900  1
  H  113  1  0.43496700  0.65826600  0.01502400  1
  H  114  1  0.49500400  0.77651900  0.82264000  1
  H  115  1  0.45060400  0.75714200  0.94842800  1
  H  116  1  0.44787600  0.66260900  0.88611400  1
  H  127  1  0.18994000  0.55609500  0.59149700  1
  H  136  1  0.30735800  0.53503300  0.57886100  1
  H  137  1  0.20267700  0.54383000  0.68430600  1
  H  138  1  0.25624500  0.48182100  0.49271100  1
  H  139  1  0.28678500  0.53058600  0.61773100  1
  H  140  1  0.19110600  0.52909100  0.55532600  1
  H  151  1  0.84956500  0.41201900  0.89521100  1
  H  152  1  0.83829800  0.37750900  0.85455600  1
  H  159  1  0.78359800  0.36136200  0.94269300  1
  H  160  1  0.78205200  0.38360400  0.98556500  1
  H  161  1  0.79908900  0.50232700  0.95742100  1
  H  162  1  0.70835900  0.34823900  0.85530100  1
  H  164  1  0.68132500  0.36861400  0.89074200  1
  H  165  1  0.71130400  0.39440200  0.91580100  1
  H  167  1  0.80441200  0.48140700  0.89118400  1
  H  168  1  0.80642200  0.51669500  0.91233200  1
  H  171  1  0.78816900  0.34788000  0.81527800  1
  H  172  1  0.79880800  0.45202000  0.01451800  1
  H  179  1  0.53840000  0.12858000  0.56324800  1
  H  180  1  0.51554500  0.14122000  0.52246000  1
  H  187  1  0.55339400  0.19260100  0.61033500  1
  H  188  1  0.57689900  0.19346200  0.65334800  1
  H  189  1  0.67957000  0.17821500  0.62603600  1
  H  190  1  0.61711800  0.27071000  0.52296800  1
  H  192  1  0.66426300  0.29654900  0.55849300  1
  H  193  1  0.65963200  0.26588400  0.58371500  1
  H  195  1  0.65374500  0.17396300  0.55965500  1
  H  196  1  0.68711900  0.17199100  0.58103600  1
  H  199  1  0.53657900  0.19255300  0.48303100  1
  H  200  1  0.62906000  0.17639600  0.68272800  1
  H  207  1  0.56288000  0.44290600  0.22704400  1
  H  208  1  0.59582100  0.46298800  0.18538000  1
  H  215  1  0.61540700  0.43005000  0.27441300  1
  H  216  1  0.59509400  0.40914600  0.31819500  1
  H  217  1  0.47436700  0.30709000  0.29457600  1
  H  218  1  0.62393200  0.36159500  0.18905200  1
  H  220  1  0.60455800  0.31667700  0.22614900  1
  H  221  1  0.58000200  0.32299000  0.25129400  1
  H  223  1  0.49245700  0.32868800  0.22741300  1
  H  224  1  0.45791300  0.29722000  0.24996000  1
  H  227  1  0.62398900  0.43936000  0.14652900  1
  H  228  1  0.52820300  0.35910400  0.34973900  1
  H  235  1  0.11008300  0.54688400  0.38891900  1
  H  236  1  0.12926600  0.58760000  0.34955600  1
  H  243  1  0.15946000  0.59333100  0.44540700  1
  H  244  1  0.15707900  0.56327000  0.48692800  1
  H  245  1  0.16320700  0.45977100  0.45317600  1
  H  246  1  0.26139400  0.63861200  0.36626200  1
  H  248  1  0.28191800  0.61915200  0.40498600  1
  H  249  1  0.24651700  0.58531600  0.42634600  1
  H  251  1  0.16693000  0.49405800  0.38832900  1
  H  252  1  0.16630500  0.45656900  0.40765900  1
  H  255  1  0.18647400  0.63229400  0.31738200  1
  H  256  1  0.15412600  0.46573600  0.50283800  1
  H  263  1  0.43889700  0.86401900  0.05967600  1
  H  264  1  0.46267000  0.84735300  0.02068500  1
  H  271  1  0.42599300  0.80598900  0.11671200  1
  H  272  1  0.39189000  0.80372400  0.15659000  1
  H  273  1  0.29175100  0.80912100  0.11696000  1
  H  274  1  0.37770700  0.71442200  0.03462100  1
  H  276  1  0.33409600  0.69143100  0.07174900  1
  H  277  1  0.33448700  0.72533500  0.09325800  1
  H  279  1  0.33257500  0.81326400  0.05406900  1
  H  280  1  0.29350000  0.81303100  0.07134700  1
  H  283  1  0.44833800  0.79237500  0.98700900  1
  H  284  1  0.29795000  0.81156900  0.16637600  1
  H  291  1  0.41732600  0.55079500  0.72374500  1
  H  292  1  0.37246600  0.52418100  0.68666600  1
  H  299  1  0.37843600  0.55907400  0.78315700  1
  H  300  1  0.41423300  0.59490300  0.82151300  1
  H  301  1  0.50700600  0.70090500  0.77775300  1
  H  302  1  0.31596900  0.59999000  0.70455700  1
  H  304  1  0.33807900  0.64345200  0.74127100  1
  H  305  1  0.37582900  0.64638000  0.76091500  1
  H  307  1  0.46345400  0.65773900  0.71661100  1
  H  308  1  0.50243300  0.69900600  0.73220600  1
  H  311  1  0.32320600  0.53090800  0.65615400  1
  H  312  1  0.51044800  0.69731800  0.82693400  1
  H  319  1  0.51583800  0.93488300  0.80880600  1
  H  320  1  0.48764800  0.86454800  0.82672100  1
  H  327  1  0.56766400  0.02472200  0.85716200  1
  H  328  1  0.61331800  0.09410400  0.83868900  1
  H  329  1  0.52610700  0.06495100  0.77741100  1
  H  330  1  0.44396600  0.90134900  0.89182200  1
  H  332  1  0.45435600  0.97241300  0.89357600  1
  H  333  1  0.47873000  0.00874300  0.87029300  1
  H  335  1  0.44841100  0.95997000  0.79993500  1
  H  336  1  0.46129600  0.99695600  0.77695200  1
  H  339  1  0.43322200  0.82870700  0.88960500  1
  H  340  1  0.59403800  0.13204000  0.77670000  1
  H  347  1  0.39397600  0.46330800  0.47778300  1
  H  348  1  0.35231800  0.49102500  0.49621200  1
  H  355  1  0.43324300  0.41013900  0.52550800  1
  H  356  1  0.45692100  0.36531400  0.50667700  1
  H  357  1  0.51334100  0.45442100  0.44516300  1
  H  358  1  0.43433500  0.53280600  0.56065400  1
  H  360  1  0.49513400  0.52251100  0.56169000  1
  H  361  1  0.50651100  0.49879200  0.53820300  1
  H  363  1  0.48587000  0.53098700  0.46813100  1
  H  364  1  0.50953000  0.51889800  0.44486400  1
  H  367  1  0.37219800  0.54335600  0.55919200  1
  H  368  1  0.51355300  0.38710700  0.44445100  1
  H  375  1  0.03557600  0.59438300  0.14553700  1
  H  376  1  0.10449800  0.63779400  0.16417200  1
  H  383  1  0.94273100  0.54394200  0.19198400  1
  H  384  1  0.87399700  0.51708400  0.17268200  1
  H  385  1  0.91409600  0.47080500  0.11033500  1
  H  386  1  0.07021600  0.54839700  0.22569100  1
  H  388  1  0.00101500  0.48488800  0.22605100  1
  H  389  1  0.96523400  0.47383000  0.20291800  1
  H  391  1  0.01937400  0.50391500  0.13399700  1
  H  392  1  0.98468800  0.47986900  0.11037000  1
  H  395  1  0.14131800  0.61180600  0.22436900  1
  H  396  1  0.84359200  0.46447600  0.10963700  1
  H  403  1  0.43862800  0.03835700  0.31233700  1
  H  404  1  0.45866400  0.10649000  0.33036400  1
  H  411  1  0.39679500  0.94698900  0.35888000  1
  H  412  1  0.35954500  0.87769800  0.34001000  1
  H  413  1  0.45266700  0.92039000  0.28048900  1
  H  414  1  0.51376900  0.07747500  0.39379700  1
  H  416  1  0.51302100  0.01055600  0.39518100  1
  H  417  1  0.49157400  0.97433400  0.37212300  1
  H  419  1  0.51789000  0.02730900  0.30347600  1
  H  420  1  0.51148000  0.99265300  0.28065600  1
  H  423  1  0.51678700  0.14651500  0.39131900  1
  H  424  1  0.39187500  0.84771600  0.28008800  1
  H  431  1  0.56869000  0.54728100  0.97763200  1
  H  432  1  0.62034500  0.53228400  0.99676100  1
  H  439  1  0.50875800  0.58051300  0.01898400  1
  H  440  1  0.46489800  0.60486100  0.99889300  1
  H  441  1  0.42192200  0.50403700  0.94536000  1
  H  442  1  0.53436000  0.46762800  0.05839800  1
  H  444  1  0.46540000  0.46224800  0.05878600  1
  H  445  1  0.44893100  0.48257400  0.03554400  1
  H  447  1  0.48225200  0.45747400  0.97050300  1
  H  448  1  0.44777000  0.45438000  0.94819100  1
  H  451  1  0.60453800  0.47408900  0.05830400  1
  H  452  1  0.41587900  0.57116300  0.93811100  1
  H  459  1  0.95394300  0.40821100  0.64661400  1
  H  460  1  0.88716300  0.35640400  0.66581300  1
  H  467  1  0.04608700  0.46915800  0.68917900  1
  H  468  1  0.11495700  0.51257900  0.66963900  1
  H  469  1  0.05885400  0.55335000  0.61252200  1
  H  470  1  0.90716800  0.44253800  0.72594700  1
  H  472  1  0.97039300  0.51177500  0.72577200  1
  H  473  1  0.00746300  0.52835100  0.70271800  1
  H  475  1  0.95116000  0.49374000  0.63663700  1
  H  476  1  0.98327000  0.52744000  0.61396300  1
  H  479  1  0.84415100  0.37164400  0.72667400  1
  H  480  1  0.13275900  0.56328000  0.60745100  1
  C  1  1  0.71238400  0.24650200  0.76340300  1
  C  2  1  0.68096500  0.20419400  0.77154700  1
  C  3  1  0.66550000  0.19491500  0.79714500  1
  C  4  1  0.68373200  0.22799300  0.81554100  1
  C  5  1  0.71537300  0.27042500  0.80815400  1
  C  6  1  0.72862100  0.27934500  0.78215700  1
  C  9  1  0.72682300  0.25595300  0.73711300  1
  C  10  1  0.69812500  0.23478600  0.71656300  1
  C  11  1  0.71182200  0.24382700  0.69064300  1
  C  12  1  0.75490600  0.27591900  0.68496700  1
  C  13  1  0.78394900  0.29883200  0.70491800  1
  C  14  1  0.76995500  0.28760000  0.73069500  1
  C  25  1  0.51294100  0.27122200  0.43094600  1
  C  26  1  0.50099600  0.30155700  0.43915900  1
  C  27  1  0.50612600  0.31544600  0.46488200  1
  C  28  1  0.52080600  0.29653600  0.48333200  1
  C  29  1  0.53249100  0.26582300  0.47588900  1
  C  30  1  0.52937700  0.25431000  0.44978100  1
  C  33  1  0.50884100  0.25831800  0.40455800  1
  C  34  1  0.51562100  0.28773200  0.38412800  1
  C  35  1  0.51120800  0.27516700  0.35816700  1
  C  36  1  0.50110600  0.23263500  0.35228100  1
  C  37  1  0.49599800  0.20315300  0.37210900  1
  C  38  1  0.49852500  0.21580300  0.39794200  1
  C  49  1  0.72763900  0.46592100  0.09506300  1
  C  50  1  0.76970300  0.47682100  0.10329800  1
  C  51  1  0.77816900  0.47078400  0.12906800  1
  C  52  1  0.74454000  0.45592800  0.14746600  1
  C  53  1  0.70230900  0.44495300  0.13993800  1
  C  54  1  0.69417800  0.44923600  0.11382400  1
  C  57  1  0.71913800  0.47146300  0.06872300  1
  C  58  1  0.74072300  0.46403200  0.04826800  1
  C  59  1  0.73248700  0.46924100  0.02230300  1
  C  60  1  0.70086300  0.48076900  0.01651300  1
  C  61  1  0.67761500  0.48689000  0.03639500  1
  C  62  1  0.68806500  0.48358000  0.06219500  1
  C  73  1  0.27180300  0.73226000  0.26542600  1
  C  74  1  0.30479800  0.77326800  0.27376400  1
  C  75  1  0.31856700  0.78078800  0.29958300  1
  C  76  1  0.29706800  0.74731200  0.31799000  1
  C  77  1  0.26342900  0.70626800  0.31051300  1
  C  78  1  0.25189700  0.69895600  0.28431700  1
  C  81  1  0.25882400  0.72516600  0.23893100  1
  C  82  1  0.28895600  0.74678900  0.21867400  1
  C  83  1  0.27601200  0.74129200  0.19277200  1
  C  84  1  0.23264400  0.71181500  0.18645000  1
  C  85  1  0.20235500  0.68814700  0.20604400  1
  C  86  1  0.21535300  0.69612000  0.23198800  1
  C  97  1  0.43644800  0.69865100  0.92985700  1
  C  98  1  0.42285400  0.65470700  0.93608200  1
  C  99  1  0.41490800  0.63818800  0.96153200  1
  C  100  1  0.41789900  0.66550800  0.98170200  1
  C  101  1  0.43013200  0.70902000  0.97654900  1
  C  102  1  0.44056800  0.72523300  0.95110500  1
  C  105  1  0.44460300  0.71497300  0.90341200  1
  C  106  1  0.44933000  0.69150700  0.88290400  1
  C  107  1  0.45594600  0.70636400  0.85721800  1
  C  108  1  0.45925200  0.74645600  0.85114900  1
  C  109  1  0.45480800  0.77095800  0.87069400  1
  C  110  1  0.44712700  0.75483600  0.89623700  1
  C  121  1  0.23954400  0.54111900  0.59920000  1
  C  122  1  0.20783400  0.55268400  0.60550600  1
  C  123  1  0.20031500  0.56139400  0.63083600  1
  C  124  1  0.22655000  0.56059500  0.65081600  1
  C  125  1  0.25883600  0.54993400  0.64565900  1
  C  126  1  0.26392700  0.53920700  0.62035400  1
  C  129  1  0.24716500  0.53280200  0.57280600  1
  C  130  1  0.21853200  0.52767200  0.55228400  1
  C  131  1  0.22652600  0.52100400  0.52669700  1
  C  132  1  0.26343200  0.51809500  0.52074300  1
  C  133  1  0.29273900  0.52291100  0.54025400  1
  C  134  1  0.28459400  0.53060300  0.56565600  1
  C  145  1  0.77213500  0.35971100  0.85122500  1
  C  146  1  0.73823500  0.36214400  0.86369900  1
  C  147  1  0.74401500  0.38209200  0.88784300  1
  C  148  1  0.78550800  0.40066000  0.89952400  1
  C  149  1  0.81972300  0.39913900  0.88688100  1
  C  150  1  0.81316800  0.37909000  0.86293100  1
  C  153  1  0.79298100  0.41898200  0.92434000  1
  C  154  1  0.78864700  0.39190300  0.94550400  1
  C  155  1  0.78780700  0.40496400  0.97073300  1
  C  156  1  0.79081100  0.44522600  0.97526700  1
  C  157  1  0.79717200  0.47315400  0.95417700  1
  C  158  1  0.79822700  0.46066800  0.92858300  1
  C  169  1  0.78294800  0.45472200  0.99959300  1
  C  170  1  0.76505300  0.33711400  0.82863300  1
  C  173  1  0.56440400  0.20727900  0.51900400  1
  C  174  1  0.60088900  0.24062800  0.53144000  1
  C  175  1  0.61479700  0.23406000  0.55567200  1
  C  176  1  0.59150700  0.19229100  0.56745800  1
  C  177  1  0.55563800  0.15860600  0.55484000  1
  C  178  1  0.54235100  0.16596700  0.53082100  1
  C  181  1  0.60208200  0.18407400  0.59237300  1
  C  182  1  0.57895300  0.18763600  0.61335600  1
  C  183  1  0.59277500  0.18820500  0.63867000  1
  C  184  1  0.63023500  0.18554100  0.64347600  1
  C  185  1  0.65218300  0.17991100  0.62258700  1
  C  186  1  0.63875500  0.17919000  0.59691200  1
  C  197  1  0.64744300  0.19317800  0.66784100  1
  C  198  1  0.54912200  0.21525000  0.49636600  1
  C  201  1  0.61277600  0.41389300  0.18341200  1
  C  202  1  0.61049700  0.37830700  0.19704200  1
  C  203  1  0.59152800  0.36604400  0.22180400  1
  C  204  1  0.57381500  0.39015200  0.23291800  1
  C  205  1  0.57511600  0.42508800  0.21912800  1
  C  206  1  0.59420500  0.43670200  0.19458400  1
  C  209  1  0.55661000  0.38132600  0.25824400  1
  C  210  1  0.58481700  0.40516700  0.27836600  1
  C  211  1  0.57287200  0.39300800  0.30413400  1
  C  212  1  0.53256400  0.35648800  0.31025900  1
  C  213  1  0.50349400  0.33394400  0.29018300  1
  C  214  1  0.51489700  0.34564200  0.26407200  1
  C  225  1  0.52441500  0.34007600  0.33502600  1
  C  226  1  0.63498600  0.42796400  0.16032500  1
  C  229  1  0.19733800  0.61719300  0.35417400  1
  C  230  1  0.22942600  0.61937000  0.37108700  1
  C  231  1  0.21889400  0.59583800  0.39457400  1
  C  232  1  0.17442600  0.56881800  0.40117600  1
  C  233  1  0.14215400  0.56623200  0.38440300  1
  C  234  1  0.15349800  0.59005200  0.36120300  1
  C  237  1  0.16174100  0.54389400  0.42429000  1
  C  238  1  0.15767700  0.56381900  0.44660600  1
  C  239  1  0.15633400  0.54617600  0.47107500  1
  C  240  1  0.15890000  0.50812700  0.47375200  1
  C  241  1  0.16012600  0.48673300  0.45136200  1
  C  242  1  0.16197300  0.50420600  0.42650900  1
  C  253  1  0.16865600  0.49658200  0.49717700  1
  C  254  1  0.20814500  0.64119000  0.33137100  1
  C  257  1  0.42289900  0.77909500  0.02402200  1
  C  258  1  0.39122800  0.74603800  0.04004200  1
  C  259  1  0.37655300  0.75502600  0.06313300  1
  C  260  1  0.39441600  0.79899400  0.07043100  1
  C  261  1  0.42614600  0.83227200  0.05473400  1
  C  262  1  0.44006300  0.82241700  0.03180200  1
  C  265  1  0.37972000  0.80998900  0.09290300  1
  C  266  1  0.39898600  0.80911300  0.11645300  1
  C  267  1  0.37887200  0.80761900  0.13993000  1
  C  268  1  0.33898000  0.80688400  0.14033000  1
  C  269  1  0.32119900  0.81063200  0.11683400  1
  C  270  1  0.34066500  0.81164500  0.09293000  1
  C  281  1  0.31427600  0.79639000  0.16249500  1
  C  282  1  0.43520800  0.76967200  0.00064500  1
  C  285  1  0.33944900  0.55924200  0.69205400  1
  C  286  1  0.33688400  0.58901800  0.70873000  1
  C  287  1  0.36317100  0.60535100  0.73074100  1
  C  288  1  0.39316600  0.59112500  0.73629300  1
  C  289  1  0.39561200  0.56096300  0.72008900  1
  C  290  1  0.36919300  0.54536300  0.69826400  1
  C  293  1  0.42199600  0.60812800  0.75732900  1
  C  294  1  0.40696700  0.58780100  0.78157500  1
  C  295  1  0.42794500  0.60899600  0.80419100  1
  C  296  1  0.46440000  0.65105900  0.80308300  1
  C  297  1  0.48113500  0.67003000  0.77873900  1
  C  298  1  0.46027100  0.64941500  0.75569400  1
  C  309  1  0.47906100  0.67639700  0.82477300  1
  C  310  1  0.31547500  0.54568600  0.66945300  1
  C  313  1  0.46308500  0.87602300  0.86125100  1
  C  314  1  0.45852400  0.90829900  0.87407700  1
  C  315  1  0.47473900  0.95048200  0.86357200  1
  C  316  1  0.49611100  0.96050800  0.83925200  1
  C  317  1  0.49975700  0.92811400  0.82605500  1
  C  318  1  0.48326800  0.88656300  0.83676200  1
  C  321  1  0.51877400  0.00316000  0.82866600  1
  C  322  1  0.55781000  0.03302700  0.84063500  1
  C  323  1  0.58490200  0.07396500  0.82961400  1
  C  324  1  0.57411800  0.08638200  0.80609800  1
  C  325  1  0.53459900  0.05656300  0.79442600  1
  C  326  1  0.50664800  0.01505700  0.80522300  1
  C  337  1  0.60147400  0.12604800  0.79413000  1
  C  338  1  0.44975200  0.83607200  0.87317600  1
  C  341  1  0.38917000  0.51457000  0.53047100  1
  C  342  1  0.42628800  0.51873700  0.54294600  1
  C  343  1  0.45199100  0.50282100  0.53211600  1
  C  344  1  0.44001300  0.48212700  0.50785100  1
  C  345  1  0.40368800  0.47887200  0.49499600  1
  C  346  1  0.37890700  0.49505400  0.50602200  1
  C  349  1  0.45985000  0.45992200  0.49695200  1
  C  350  1  0.45105600  0.42056100  0.50885400  1
  C  351  1  0.46481400  0.39393600  0.49760600  1
  C  352  1  0.48758900  0.40557400  0.47394600  1
  C  353  1  0.49677900  0.44533200  0.46228600  1
  C  354  1  0.48325500  0.47279500  0.47329600  1
  C  365  1  0.50017800  0.37892800  0.46188800  1
  C  366  1  0.36288900  0.52763000  0.54268400  1
  C  369  1  0.09406700  0.59738300  0.19698000  1
  C  370  1  0.06291700  0.55791100  0.20866100  1
  C  371  1  0.02165600  0.53124400  0.19773500  1
  C  372  1  0.01151300  0.54466600  0.17415400  1
  C  373  1  0.04257800  0.58376100  0.16225100  1
  C  374  1  0.08320900  0.60955200  0.17339700  1
  C  377  1  0.96971300  0.52288700  0.16298800  1
  C  378  1  0.93692700  0.52765500  0.17503800  1
  C  379  1  0.89637700  0.51195900  0.16351900  1
  C  380  1  0.88731000  0.49129500  0.13943400  1
  C  381  1  0.92003700  0.48580400  0.12774800  1
  C  382  1  0.96124500  0.50130300  0.13904100  1
  C  393  1  0.84811000  0.47760000  0.12694600  1
  C  394  1  0.13400800  0.62283100  0.20861300  1
  C  397  1  0.48804000  0.09857900  0.36407900  1
  C  398  1  0.49817200  0.06927300  0.37648500  1
  C  399  1  0.48685500  0.02854600  0.36594500  1
  C  400  1  0.46483000  0.01709300  0.34201800  1
  C  401  1  0.45518700  0.04639600  0.32933000  1
  C  402  1  0.46675000  0.08651600  0.34012600  1
  C  405  1  0.44772200  0.97534400  0.33127300  1
  C  406  1  0.40973300  0.94163800  0.34270600  1
  C  407  1  0.38765700  0.90073600  0.33146100  1
  C  408  1  0.40286900  0.89209300  0.30844400  1
  C  409  1  0.44130200  0.92590400  0.29727600  1
  C  410  1  0.46408900  0.96757600  0.30822400  1
  C  421  1  0.37982100  0.85253000  0.29615200  1
  C  422  1  0.49905200  0.13790500  0.37542600  1
  C  425  1  0.58233300  0.49837300  0.02958300  1
  C  426  1  0.54161900  0.48453600  0.04134500  1
  C  427  1  0.51027100  0.49296100  0.03025600  1
  C  428  1  0.52027800  0.51614200  0.00647300  1
  C  429  1  0.56084800  0.53023000  0.99464000  1
  C  430  1  0.59134400  0.52144200  0.00599100  1
  C  433  1  0.49158000  0.52738800  0.99429900  1
  C  434  1  0.49021200  0.56365000  0.00365200  1
  C  435  1  0.46418300  0.57790400  0.99180800  1
  C  436  1  0.43876700  0.55646100  0.97016600  1
  C  437  1  0.44012000  0.51997200  0.96102200  1
  C  438  1  0.46607700  0.50488200  0.97269800  1
  C  449  1  0.41402600  0.57078900  0.95717200  1
  C  450  1  0.61170700  0.48859900  0.04112800  1
  C  453  1  0.89058100  0.39447000  0.69789100  1
  C  454  1  0.91709800  0.43531100  0.70917800  1
  C  455  1  0.95693700  0.46676700  0.69802200  1
  C  456  1  0.97057100  0.45676300  0.67466200  1
  C  457  1  0.94437800  0.41611200  0.66327300  1
  C  458  1  0.90501900  0.38551200  0.67467500  1
  C  461  1  0.01091600  0.48531500  0.66268300  1
  C  462  1  0.04826000  0.48716500  0.67318800  1
  C  463  1  0.08893700  0.51288500  0.66162600  1
  C  464  1  0.09363500  0.53745800  0.63908900  1
  C  465  1  0.05608300  0.53568600  0.62880300  1
  C  466  1  0.01464600  0.51004600  0.64018200  1
  C  477  1  0.13327300  0.56190400  0.62652600  1
  C  478  1  0.85149100  0.36483500  0.70956100  1
  N  21  1  0.82330800  0.33033100  0.69822900  1
  N  22  1  0.68586600  0.22516000  0.67087100  1
  N  23  1  0.73048700  0.30023300  0.82626100  1
  N  24  1  0.63568000  0.15561800  0.80506600  1
  N  45  1  0.48842800  0.16428100  0.36533200  1
  N  46  1  0.51740200  0.30144200  0.33844200  1
  N  47  1  0.54702500  0.25001900  0.49402600  1
  N  48  1  0.49610000  0.34458800  0.47282200  1
  N  69  1  0.64643200  0.49509800  0.02967300  1
  N  70  1  0.75144100  0.46196500  0.00259200  1
  N  71  1  0.67218100  0.43084400  0.15816900  1
  N  72  1  0.81731000  0.48110600  0.13725900  1
  N  93  1  0.16253600  0.65943600  0.19893600  1
  N  94  1  0.30474400  0.76073400  0.17412900  1
  N  95  1  0.24466000  0.67636100  0.32886700  1
  N  96  1  0.34924000  0.81895100  0.30787500  1
  N  117  1  0.46016700  0.80929000  0.86391600  1
  N  118  1  0.45093000  0.67973200  0.83840400  1
  N  119  1  0.42686800  0.73102700  0.99591900  1
  N  120  1  0.40513400  0.59805400  0.96791000  1
  N  141  1  0.32572800  0.51783300  0.53353000  1
  N  142  1  0.20443300  0.52450900  0.50738200  1
  N  143  1  0.28539500  0.55456700  0.66477600  1
  N  144  1  0.16897000  0.56939700  0.63742500  1
  N  163  1  0.70941700  0.38184200  0.89907100  1
  N  166  1  0.80289300  0.48832700  0.90901600  1
  N  191  1  0.64921800  0.26823800  0.56688200  1
  N  194  1  0.66208300  0.17521400  0.57753100  1
  N  219  1  0.59191700  0.33236800  0.23412300  1
  N  222  1  0.48625500  0.32156100  0.24556000  1
  N  247  1  0.25178700  0.60024800  0.40988800  1
  N  250  1  0.16594000  0.48354200  0.40575700  1
  N  275  1  0.34573600  0.72118400  0.07722000  1
  N  278  1  0.32029400  0.81211700  0.07091300  1
  N  303  1  0.35888200  0.63429800  0.74550100  1
  N  306  1  0.47636600  0.67069300  0.73293400  1
  N  331  1  0.46937600  0.97991100  0.87707900  1
  N  334  1  0.46925200  0.98811500  0.79283900  1
  N  359  1  0.48710400  0.50778700  0.54527800  1
  N  362  1  0.49321100  0.51047700  0.46092600  1
  N  387  1  0.99337200  0.49372000  0.21004800  1
  N  390  1  0.99120100  0.49505800  0.12661800  1
  N  415  1  0.49751600  0.00195800  0.37898100  1
  N  418  1  0.50063700  0.99863400  0.29633200  1
  N  443  1  0.47170700  0.47826100  0.04260000  1
  N  446  1  0.46561300  0.46946900  0.96289300  1
  N  471  1  0.98045700  0.50542500  0.70991200  1
  N  474  1  0.98003000  0.51011900  0.62926800  1
  O  8  1  0.66940600  0.21923700  0.84039500  1
  O  15  1  0.76792600  0.28657900  0.65997600  1
  O  32  1  0.52534600  0.30931700  0.50830600  1
  O  39  1  0.49869300  0.22063400  0.32723600  1
  O  56  1  0.75263000  0.45074800  0.17251000  1
  O  63  1  0.69093200  0.48363800  0.99149900  1
  O  80  1  0.30954000  0.75443200  0.34309800  1
  O  87  1  0.22082300  0.70436000  0.16126700  1
  O  104  1  0.40744400  0.64916500  0.00617500  1
  O  111  1  0.46372400  0.76001000  0.82613400  1
  O  128  1  0.22130200  0.57127900  0.67515000  1
  O  135  1  0.27206000  0.51311800  0.49584500  1
