# generated using pymatgen
data_H11C20(N2O)2
_symmetry_space_group_name_H-M   'P 1'
_cell_length_a   29.31825000
_cell_length_b   29.31820000
_cell_length_c   37.07030000
_cell_angle_alpha   90.00000000
_cell_angle_beta   90.00000000
_cell_angle_gamma   119.99983076
_symmetry_Int_Tables_number   1
_chemical_formula_structural   H11C20(N2O)2
_chemical_formula_sum   'H132 C240 N48 O24'
_cell_volume   27595.15386621
_cell_formula_units_Z   12
loop_
 _symmetry_equiv_pos_site_id
 _symmetry_equiv_pos_as_xyz
  1  'x, y, z'
loop_
 _atom_site_type_symbol
 _atom_site_label
 _atom_site_symmetry_multiplicity
 _atom_site_fract_x
 _atom_site_fract_y
 _atom_site_fract_z
 _atom_site_occupancy
  H  1  1  0.98125600  0.59814100  0.65700000  1
  H  5  1  0.97573500  0.44545000  0.94449100  1
  H  8  1  0.96302500  0.59907500  0.11235700  1
  H  19  1  0.70505500  0.14056000  0.96044800  1
  H  28  1  0.82741400  0.27414700  0.01212600  1
  H  31  1  0.83704500  0.17472600  0.05109800  1
  H  32  1  0.80620700  0.11508500  0.95995600  1
  H  33  1  0.61996600  0.05199300  0.07099200  1
  H  34  1  0.90864600  0.31365100  0.89461800  1
  H  39  1  0.94547100  0.36461100  0.95809200  1
  H  40  1  0.75316000  0.13518300  0.11166100  1
  H  41  1  0.61030000  0.01505300  0.99392300  1
  H  42  1  0.84970300  0.17806500  0.88051000  1
  H  49  1  0.42889900  0.28880600  0.29247100  1
  H  58  1  0.44143400  0.16788800  0.34558100  1
  H  61  1  0.33460000  0.16061200  0.38577800  1
  H  62  1  0.30313100  0.18854700  0.29356700  1
  H  63  1  0.43162200  0.37854600  0.40261600  1
  H  64  1  0.39825400  0.08461400  0.22877600  1
  H  69  1  0.41338300  0.04907800  0.29230700  1
  H  70  1  0.38154000  0.24649600  0.44500900  1
  H  71  1  0.39917300  0.38393000  0.32388700  1
  H  72  1  0.32433100  0.14425800  0.21363500  1
  H  79  1  0.85670000  0.56777000  0.62488800  1
  H  88  1  0.72299800  0.55582700  0.67724800  1
  H  91  1  0.82247500  0.66260200  0.71763400  1
  H  92  1  0.88279300  0.69373600  0.62594300  1
  H  93  1  0.94318600  0.56554500  0.73532600  1
  H  94  1  0.68436300  0.60031900  0.56016300  1
  H  99  1  0.63301700  0.58420700  0.62327300  1
  H  100  1  0.86102400  0.61570900  0.77724800  1
  H  101  1  0.81206900  0.67038500  0.54412600  1
  H  108  1  0.26725000  0.86605700  0.97637600  1
  H  117  1  0.14008800  0.74161700  0.03676800  1
  H  120  1  0.11083000  0.83196300  0.04084700  1
  H  121  1  0.16280700  0.85522100  0.93841300  1
  H  122  1  0.31848500  0.96782700  0.08514100  1
  H  123  1  0.09266000  0.64164100  0.92276000  1
  H  128  1  0.06896600  0.64991200  0.03849700  1
  H  129  1  0.17896200  0.87623200  0.11189300  1
  H  130  1  0.35597800  0.99530500  0.01753200  1
  H  131  1  0.14140000  0.76552400  0.87963700  1
  H  138  1  0.59508400  0.72966900  0.31225500  1
  H  147  1  0.59838100  0.85770600  0.37151000  1
  H  150  1  0.71827300  0.88697800  0.37543800  1
  H  151  1  0.68918400  0.83369900  0.27365800  1
  H  152  1  0.64492400  0.68013100  0.42219200  1
  H  153  1  0.54583600  0.90376400  0.25690100  1
  H  158  1  0.57741300  0.92852400  0.37263500  1
  H  159  1  0.69422300  0.81940400  0.44744700  1
  H  160  1  0.63388200  0.64064000  0.35517900  1
  H  161  1  0.62192800  0.85481800  0.21452200  1
  H  168  1  0.13150500  0.40237300  0.64460200  1
  H  177  1  0.25606400  0.39928900  0.70438600  1
  H  180  1  0.16556600  0.27964400  0.70858900  1
  H  181  1  0.14187000  0.30840800  0.60631300  1
  H  182  1  0.03100100  0.35246000  0.75396500  1
  H  183  1  0.35507900  0.45272400  0.58990400  1
  H  188  1  0.34806000  0.42044400  0.70559700  1
  H  189  1  0.12127800  0.30358300  0.78011100  1
  H  190  1  0.00300200  0.36297000  0.68664400  1
  H  191  1  0.23057300  0.37644100  0.54730100  1
  H  199  1  0.03257000  0.53640800  0.94592400  1
  H  204  1  0.89955200  0.55672000  0.16054900  1
  H  205  1  0.84044700  0.46209700  0.15983200  1
  H  206  1  0.84435100  0.40920000  0.11090600  1
  H  219  1  0.46473700  0.01974000  0.27840600  1
  H  220  1  0.49945800  0.96339100  0.27987100  1
  H  225  1  0.63264900  0.03471200  0.44592600  1
  H  226  1  0.65364000  0.09838800  0.49395900  1
  H  227  1  0.61754600  0.15700400  0.49318500  1
  H  228  1  0.56028500  0.15239300  0.44436400  1
  H  241  1  0.55157200  0.53542400  0.61094700  1
  H  242  1  0.46057600  0.50070100  0.61306000  1
  H  247  1  0.40035500  0.36400600  0.77768500  1
  H  248  1  0.44349800  0.34191900  0.82477500  1
  H  249  1  0.53817300  0.37790300  0.82331600  1
  H  250  1  0.59033600  0.43614700  0.77474700  1
  H  263  1  0.61640600  0.56420100  0.33153200  1
  H  264  1  0.57148100  0.47140300  0.32807700  1
  H  269  1  0.32602100  0.42283000  0.26130600  1
  H  270  1  0.28267000  0.47092900  0.24236700  1
  H  271  1  0.32877500  0.56639300  0.24580600  1
  H  272  1  0.41852200  0.61438300  0.26816900  1
  H  285  1  0.43203000  0.05383800  0.99248500  1
  H  286  1  0.52491800  0.10195300  0.98957800  1
  H  291  1  0.57546600  0.90282500  0.93078200  1
  H  292  1  0.52793500  0.81068500  0.91341600  1
  H  293  1  0.43241700  0.76120700  0.91605300  1
  H  294  1  0.38380500  0.80353600  0.93602100  1
  H  305  1  0.94425400  0.38033000  0.66235200  1
  H  306  1  0.89618900  0.42508400  0.65884300  1
  H  311  1  0.09404100  0.67230900  0.59532000  1
  H  312  1  0.18589300  0.71631600  0.57728400  1
  H  313  1  0.23542200  0.67038300  0.58070200  1
  H  314  1  0.19343700  0.58015700  0.60214000  1
  H  327  1  0.70035000  0.96391700  0.10739300  1
  H  328  1  0.67263700  0.90586700  0.15829900  1
  H  333  1  0.67842000  0.07661100  0.29396600  1
  H  334  1  0.69566400  0.16616200  0.30105200  1
  H  335  1  0.72415800  0.22566400  0.24978800  1
  H  336  1  0.73540300  0.19597200  0.19108000  1
  H  349  1  0.26321700  0.29967300  0.44003200  1
  H  350  1  0.23228600  0.32699700  0.49082400  1
  H  355  1  0.39428000  0.31819900  0.62756400  1
  H  356  1  0.46596100  0.30011000  0.63509600  1
  H  357  1  0.49754000  0.27198100  0.58395300  1
  H  358  1  0.45780700  0.26195600  0.52491900  1
  H  368  1  0.03244800  0.73434600  0.77264800  1
  H  369  1  0.09047100  0.76528300  0.82355400  1
  H  374  1  0.91952000  0.60214300  0.95983000  1
  H  375  1  0.82988900  0.53007700  0.96712300  1
  H  376  1  0.77042500  0.49847800  0.91585100  1
  H  377  1  0.80023600  0.53857300  0.85692600  1
  H  390  1  0.22204000  0.04248300  0.11625800  1
  H  391  1  0.25196500  0.09661000  0.16889300  1
  H  396  1  0.27634300  0.92458200  0.28960900  1
  H  397  1  0.27002900  0.83881700  0.28974400  1
  H  398  1  0.24085500  0.78398700  0.23610000  1
  H  399  1  0.21785000  0.81459300  0.18197300  1
  H  412  1  0.81891400  0.77846100  0.45059800  1
  H  413  1  0.84430100  0.74876000  0.50277400  1
  H  418  1  0.64789500  0.72065400  0.62491800  1
  H  419  1  0.56776200  0.72571800  0.62572500  1
  H  420  1  0.54105600  0.75479100  0.57253400  1
  H  421  1  0.59430200  0.77895600  0.51818800  1
  H  433  1  0.95466000  0.18057800  0.78298400  1
  H  434  1  0.89901300  0.15668600  0.83481200  1
  H  439  1  0.06907300  0.35143700  0.95722000  1
  H  440  1  0.15532400  0.43023600  0.95828300  1
  H  441  1  0.21169700  0.45545000  0.90543300  1
  H  442  1  0.18216500  0.40204500  0.85117300  1
  C  2  1  0.97771900  0.52321100  0.02745300  1
  C  3  1  0.97612500  0.46406300  0.96780100  1
  C  6  1  0.98034900  0.67626000  0.86618500  1
  C  7  1  0.97073700  0.19895900  0.80697100  1
  C  9  1  0.95966600  0.49853300  0.64206100  1
  C  10  1  0.96393100  0.41853000  0.65382800  1
  C  11  1  0.96422900  0.67960000  0.80136600  1
  C  13  1  0.76013800  0.16943600  0.00339900  1
  C  14  1  0.71084400  0.13497400  0.98699000  1
  C  15  1  0.67113100  0.09038500  0.00501200  1
  C  16  1  0.68042700  0.08075300  0.04091400  1
  C  17  1  0.72844400  0.11533600  0.05883400  1
  C  18  1  0.76782100  0.15999100  0.03994300  1
  C  21  1  0.80341100  0.20459200  0.98146400  1
  C  22  1  0.81727600  0.18370900  0.95137800  1
  C  23  1  0.86101500  0.21638100  0.92946800  1
  C  24  1  0.88948700  0.27116500  0.93681100  1
  C  25  1  0.87934000  0.29317500  0.96794500  1
  C  26  1  0.83623000  0.25890700  0.99011700  1
  C  35  1  0.91281300  0.34798300  0.97390600  1
  C  36  1  0.73657000  0.10541100  0.09438300  1
  C  37  1  0.62496000  0.05363100  0.98684200  1
  C  38  1  0.87529200  0.19614300  0.90033900  1
  C  43  1  0.40433900  0.23535300  0.33636600  1
  C  44  1  0.41878000  0.28408200  0.31925300  1
  C  45  1  0.41571000  0.32489100  0.33712700  1
  C  46  1  0.39862300  0.31723700  0.37343100  1
  C  47  1  0.38526200  0.26963500  0.39190700  1
  C  48  1  0.38911400  0.22921800  0.37329100  1
  C  51  1  0.39540300  0.19133600  0.31495300  1
  C  52  1  0.36045000  0.17712000  0.28496400  1
  C  53  1  0.34925500  0.13314500  0.26330000  1
  C  54  1  0.37542700  0.10459900  0.27083700  1
  C  55  1  0.40789800  0.11520700  0.30184800  1
  C  56  1  0.41702600  0.15867100  0.32373400  1
  C  65  1  0.42947000  0.08197100  0.30790200  1
  C  66  1  0.36808600  0.26268700  0.42761500  1
  C  67  1  0.42408600  0.37001400  0.31812000  1
  C  68  1  0.31519800  0.11906400  0.23395300  1
  C  73  1  0.82758800  0.59253700  0.66854600  1
  C  74  1  0.86192900  0.57795400  0.65165600  1
  C  75  1  0.90585100  0.58129000  0.66965700  1
  C  76  1  0.91510100  0.59855900  0.70593200  1
  C  77  1  0.88074100  0.61193700  0.72421900  1
  C  78  1  0.83657400  0.60800200  0.70542500  1
  C  81  1  0.79281200  0.60159700  0.64689000  1
  C  82  1  0.81400400  0.63670000  0.61700900  1
  C  83  1  0.78155600  0.64817800  0.59523400  1
  C  84  1  0.72677000  0.62216300  0.60241800  1
  C  85  1  0.70447200  0.58959700  0.63333700  1
  C  86  1  0.73847600  0.58024200  0.65543300  1
  C  95  1  0.64965900  0.56832000  0.63919400  1
  C  96  1  0.89075000  0.62918100  0.75991800  1
  C  97  1  0.94267900  0.57272200  0.65082300  1
  C  98  1  0.80185500  0.68250600  0.56610000  1
  C  102  1  0.20106100  0.83894600  0.01095200  1
  C  103  1  0.25292400  0.87508300  0.99879200  1
  C  104  1  0.28600100  0.92311000  0.01680300  1
  C  105  1  0.26654300  0.93434100  0.04870500  1
  C  106  1  0.21531100  0.89908800  0.06220100  1
  C  107  1  0.18308800  0.85181200  0.04298600  1
  C  110  1  0.16788200  0.79187600  0.99130100  1
  C  111  1  0.16196600  0.79280500  0.95323600  1
  C  112  1  0.12697900  0.74638800  0.93414800  1
  C  113  1  0.10094400  0.69752200  0.95283500  1
  C  114  1  0.10303400  0.69547300  0.99106300  1
  C  115  1  0.13621800  0.74319400  0.00941200  1
  C  124  1  0.07162500  0.64861700  0.01104400  1
  C  125  1  0.19882200  0.90711200  0.09581300  1
  C  126  1  0.33787900  0.95938800  0.00523300  1
  C  127  1  0.11372900  0.74911300  0.89845500  1
  C  132  1  0.63462200  0.79642400  0.34629600  1
  C  133  1  0.61851100  0.74426900  0.33461600  1
  C  134  1  0.63292200  0.71117700  0.35318000  1
  C  135  1  0.66371600  0.73107500  0.38500100  1
  C  136  1  0.68045700  0.78278600  0.39782800  1
  C  137  1  0.66561900  0.81486700  0.37823800  1
  C  140  1  0.62081200  0.82938400  0.32631800  1
  C  141  1  0.62766700  0.83482900  0.28823900  1
  C  142  1  0.61630700  0.86964900  0.26885900  1
  C  143  1  0.59337300  0.89581400  0.28726200  1
  C  144  1  0.58917300  0.89412600  0.32548400  1
  C  145  1  0.60380900  0.86125300  0.34414100  1
  C  154  1  0.57352000  0.92558900  0.34518500  1
  C  155  1  0.70544500  0.79986800  0.43121900  1
  C  156  1  0.61672700  0.65890700  0.34225500  1
  C  157  1  0.63244700  0.88263000  0.23316200  1
  C  162  1  0.15858200  0.36299700  0.67893200  1
  C  163  1  0.12255000  0.37898800  0.66699500  1
  C  164  1  0.07481500  0.36442000  0.68528400  1
  C  165  1  0.06368900  0.33367400  0.71714600  1
  C  166  1  0.09871700  0.31721500  0.73032500  1
  C  167  1  0.14583900  0.33212200  0.71095200  1
  C  170  1  0.20548700  0.37683300  0.65909100  1
  C  171  1  0.20428900  0.37007600  0.62100100  1
  C  172  1  0.25062500  0.38178500  0.60170000  1
  C  173  1  0.29965000  0.40492000  0.62020000  1
  C  174  1  0.30197400  0.40893300  0.65843000  1
  C  175  1  0.25432800  0.39398500  0.67700800  1
  C  184  1  0.34907900  0.42467100  0.67817400  1
  C  185  1  0.09059500  0.29237400  0.76381700  1
  C  186  1  0.03866300  0.38034000  0.67402700  1
  C  187  1  0.24773900  0.36583100  0.56597600  1
  C  192  1  0.94273400  0.43630400  0.99735500  1
  C  193  1  0.94266500  0.46743600  0.02666600  1
  C  194  1  0.01201600  0.54900800  0.99821300  1
  C  195  1  0.00940000  0.51881100  0.96806500  1
  C  196  1  0.94082200  0.52864900  0.08350600  1
  C  197  1  0.90625400  0.47334800  0.08303400  1
  C  200  1  0.93843200  0.55914500  0.11200100  1
  C  201  1  0.90153900  0.53460300  0.13993700  1
  C  202  1  0.86725200  0.47970200  0.13951900  1
  C  203  1  0.86963100  0.44900200  0.11115900  1
  C  209  1  0.48874200  0.05306700  0.33116800  1
  C  210  1  0.52028500  0.05361000  0.36040200  1
  C  211  1  0.54135400  0.01885900  0.36121600  1
  C  212  1  0.53284500  0.98440700  0.33207500  1
  C  213  1  0.50499000  0.98663800  0.30196100  1
  C  214  1  0.48311400  0.01955900  0.30169700  1
  C  216  1  0.58392900  0.05630600  0.41711000  1
  C  217  1  0.56285800  0.09058700  0.41660300  1
  C  221  1  0.61707900  0.05910200  0.44554500  1
  C  222  1  0.62935400  0.09611500  0.47338700  1
  C  223  1  0.60840800  0.13011900  0.47293700  1
  C  224  1  0.57507800  0.12734400  0.44463100  1
  C  231  1  0.56145700  0.51001200  0.66308300  1
  C  232  1  0.53075800  0.47805200  0.69227400  1
  C  233  1  0.47496000  0.45703500  0.69349600  1
  C  234  1  0.44871700  0.46609700  0.66481800  1
  C  235  1  0.47851600  0.49465800  0.63480200  1
  C  236  1  0.53330100  0.51646700  0.63414900  1
  C  238  1  0.47037200  0.41327100  0.74873800  1
  C  239  1  0.52570300  0.43427800  0.74783400  1
  C  243  1  0.44030500  0.37954900  0.77702800  1
  C  244  1  0.46530500  0.36663300  0.80432100  1
  C  245  1  0.52023500  0.38751500  0.80347200  1
  C  246  1  0.55050900  0.42142000  0.77531700  1
  C  253  1  0.55292700  0.57485900  0.31442200  1
  C  254  1  0.50102900  0.54642500  0.30063200  1
  C  255  1  0.47361100  0.49022500  0.29916900  1
  C  256  1  0.49851700  0.46166800  0.31028900  1
  C  257  1  0.55214700  0.49058800  0.31982800  1
  C  258  1  0.57839800  0.54579100  0.32261700  1
  C  260  1  0.39775400  0.49075000  0.27573300  1
  C  261  1  0.42471400  0.54646800  0.27775300  1
  C  265  1  0.34564600  0.46305100  0.26279800  1
  C  266  1  0.32048300  0.49094200  0.25181100  1
  C  267  1  0.34723100  0.54632700  0.25381800  1
  C  268  1  0.39930700  0.57416100  0.26682300  1
  C  275  1  0.42200000  0.97910600  0.97777000  1
  C  276  1  0.45077300  0.95521300  0.96543800  1
  C  277  1  0.50698800  0.98406400  0.96452600  1
  C  278  1  0.53523700  0.03803100  0.97452800  1
  C  279  1  0.50600900  0.06313900  0.98202700  1
  C  280  1  0.45076100  0.03405000  0.98464800  1
  C  282  1  0.50716200  0.90691700  0.94348100  1
  C  283  1  0.45141200  0.87809000  0.94502600  1
  C  287  1  0.53521900  0.88217400  0.93194400  1
  C  288  1  0.50765900  0.82872100  0.92186400  1
  C  289  1  0.45224100  0.80001500  0.92340500  1
  C  290  1  0.42404800  0.82458700  0.93503200  1
  C  297  1  0.01866600  0.44434400  0.64624000  1
  C  298  1  0.04229800  0.49653400  0.63297800  1
  C  299  1  0.01340700  0.52384200  0.63154300  1
  C  300  1  0.93486900  0.44466200  0.65096300  1
  C  302  1  0.09016900  0.60037100  0.60919700  1
  C  303  1  0.11902400  0.57350800  0.61120400  1
  C  307  1  0.11471000  0.65275800  0.59680400  1
  C  308  1  0.16799900  0.67830000  0.58633700  1
  C  309  1  0.19673100  0.65164900  0.58833100  1
  C  310  1  0.17235700  0.59929900  0.60079900  1
  C  317  1  0.71368200  0.03218200  0.13599800  1
  C  318  1  0.70982000  0.05065200  0.17055200  1
  C  319  1  0.69324600  0.01597700  0.20069400  1
  C  320  1  0.67973200  0.96274000  0.19657300  1
  C  321  1  0.68382700  0.94460800  0.16217000  1
  C  322  1  0.70035800  0.97893600  0.13234300  1
  C  324  1  0.69732800  0.08429400  0.23832000  1
  C  325  1  0.71374300  0.11889400  0.20835000  1
  C  329  1  0.69062700  0.10158300  0.27231000  1
  C  330  1  0.70056200  0.15351000  0.27641800  1
  C  331  1  0.71708500  0.18802400  0.24666900  1
  C  332  1  0.72364200  0.17079300  0.21260700  1
  C  339  1  0.31758000  0.28580800  0.46892800  1
  C  340  1  0.33926400  0.28907100  0.50363800  1
  C  341  1  0.32078600  0.30538200  0.53371600  1
  C  342  1  0.28130200  0.31919000  0.52938600  1
  C  343  1  0.25975800  0.31573300  0.49481900  1
  C  344  1  0.27785900  0.29937800  0.46506800  1
  C  346  1  0.38399800  0.30016600  0.57177300  1
  C  347  1  0.40252100  0.28396700  0.54187600  1
  C  351  1  0.40729700  0.30616300  0.60595100  1
  C  352  1  0.44892000  0.29573100  0.61031900  1
  C  353  1  0.46724000  0.27941600  0.58064300  1
  C  354  1  0.44414900  0.27356800  0.54639400  1
  C  361  1  0.94570300  0.65777000  0.83603100  1
  C  362  1  0.03358800  0.71596600  0.86198600  1
  C  363  1  0.05176100  0.73767200  0.82746600  1
  C  364  1  0.01746000  0.71951500  0.79763800  1
  C  365  1  0.91192800  0.61262800  0.90404800  1
  C  366  1  0.87734700  0.59409300  0.87407500  1
  C  370  1  0.89456800  0.58912000  0.93816400  1
  C  371  1  0.84259600  0.54727000  0.94239400  1
  C  372  1  0.80810200  0.52893600  0.91264100  1
  C  373  1  0.82540100  0.55224100  0.87845500  1
  C  380  1  0.21584100  0.97412200  0.14044400  1
  C  381  1  0.22460100  0.95424900  0.17298500  1
  C  382  1  0.24197400  0.98640800  0.20435800  1
  C  383  1  0.25194200  0.03884400  0.20327300  1
  C  384  1  0.24200200  0.05793900  0.17100200  1
  C  385  1  0.22419800  0.02589700  0.14005000  1
  C  387  1  0.25014100  0.91929400  0.23571700  1
  C  388  1  0.23323500  0.88737000  0.20441700  1
  C  392  1  0.26366300  0.90148900  0.26701700  1
  C  393  1  0.26010500  0.85177600  0.26708200  1
  C  394  1  0.24319400  0.81997300  0.23595400  1
  C  395  1  0.22977800  0.83770700  0.20457100  1
  C  402  1  0.75658400  0.78377300  0.47538100  1
  C  403  1  0.72818700  0.77429600  0.50809700  1
  C  404  1  0.74358000  0.75696000  0.53919700  1
  C  405  1  0.78639800  0.74758000  0.53762200  1
  C  406  1  0.81528900  0.75824700  0.50522400  1
  C  407  1  0.80030700  0.77587600  0.47453400  1
  C  409  1  0.66816300  0.74750500  0.57109300  1
  C  410  1  0.65253100  0.76435000  0.54005500  1
  C  414  1  0.63705300  0.73332000  0.60252300  1
  C  415  1  0.59049900  0.73614700  0.60297300  1
  C  416  1  0.57499600  0.75300000  0.57210800  1
  C  417  1  0.60593700  0.76709100  0.54060000  1
  C  424  1  0.02284500  0.24186400  0.80797800  1
  C  425  1  0.04191900  0.27024200  0.84068700  1
  C  426  1  0.00885500  0.25569600  0.87159500  1
  C  427  1  0.95623900  0.21371800  0.86984700  1
  C  428  1  0.93776700  0.18495400  0.83744000  1
  C  430  1  0.07562200  0.33044000  0.90359300  1
  C  431  1  0.10845600  0.34519900  0.87275300  1
  C  435  1  0.09281500  0.36165200  0.93496700  1
  C  436  1  0.14281600  0.40742900  0.93556900  1
  C  437  1  0.17551800  0.42206300  0.90490300  1
  C  438  1  0.15840500  0.39102700  0.87344500  1
  N  4  1  0.97507500  0.55122000  0.05575400  1
  N  12  1  0.96179200  0.65262600  0.89875200  1
  N  198  1  0.90876500  0.44517400  0.05478200  1
  N  207  1  0.91068700  0.38238300  0.99760000  1
  N  208  1  0.04659800  0.60110100  0.99476000  1
  N  215  1  0.57228100  0.02190900  0.38945200  1
  N  218  1  0.53188800  0.08765900  0.38842200  1
  N  229  1  0.46647800  0.08476100  0.33141100  1
  N  230  1  0.55066800  0.95007200  0.32864900  1
  N  237  1  0.44735800  0.42553000  0.72158300  1
  N  240  1  0.55345800  0.46579000  0.71978400  1
  N  251  1  0.61535600  0.53178400  0.66291300  1
  N  252  1  0.39648100  0.44804300  0.66170500  1
  N  259  1  0.42331600  0.46531600  0.28658300  1
  N  262  1  0.47494600  0.57180100  0.29027600  1
  N  273  1  0.57370300  0.62722000  0.32207500  1
  N  274  1  0.47503000  0.40883900  0.31619100  1
  N  281  1  0.53226300  0.95832700  0.95336300  1
  N  284  1  0.42572500  0.90334000  0.95612300  1
  N  295  1  0.36973800  0.94753700  0.98570600  1
  N  296  1  0.58780200  0.06739000  0.98152000  1
  N  301  1  0.03893900  0.57442700  0.61951200  1
  N  304  1  0.09398600  0.52299600  0.62317800  1
  N  315  1  0.05026100  0.42364200  0.65408400  1
  N  316  1  0.93014300  0.52179000  0.64809600  1
  N  323  1  0.68763100  0.03446700  0.23313800  1
  N  326  1  0.71893200  0.10045000  0.17592800  1
  N  337  1  0.71880300  0.05786100  0.10537600  1
  N  338  1  0.65894300  0.93170200  0.22494000  1
  N  345  1  0.34421500  0.31032000  0.56634600  1
  N  348  1  0.37956500  0.27945500  0.50927000  1
  N  359  1  0.33809200  0.28032500  0.43838900  1
  N  360  1  0.27062300  0.33962300  0.55776200  1
  N  367  1  0.89585600  0.61724900  0.84153400  1
  N  378  1  0.93832900  0.65912000  0.77080300  1
  N  379  1  0.06459600  0.72661200  0.89041800  1
  N  386  1  0.25417200  0.96738100  0.23417400  1
  N  389  1  0.22173000  0.90647500  0.17459000  1
  N  400  1  0.21606500  0.95365700  0.10854500  1
  N  401  1  0.28203800  0.06987400  0.22956700  1
  N  408  1  0.71257200  0.74414700  0.56916500  1
  N  411  1  0.68294800  0.77649800  0.51008500  1
  N  422  1  0.73538300  0.78317200  0.44363000  1
  N  423  1  0.78840600  0.71794600  0.56389600  1
  N  429  1  0.02729800  0.28677400  0.90151800  1
  N  432  1  0.08994100  0.31474800  0.84281300  1
  N  443  1  0.04389700  0.26280600  0.77625500  1
  N  444  1  0.92459200  0.21304000  0.89558900  1
  O  20  1  0.64082000  0.03873200  0.05876700  1
  O  27  1  0.92688600  0.30335300  0.91229700  1
  O  29  1  0.81547500  0.19110600  0.05606900  1
  O  30  1  0.79073800  0.13084800  0.94424400  1
  O  50  1  0.39717100  0.35766300  0.39082000  1
  O  57  1  0.36984000  0.06675500  0.24659100  1
  O  59  1  0.37274500  0.18204200  0.39007500  1
  O  60  1  0.33412100  0.20359400  0.27763500  1
  O  80  1  0.95684300  0.60000200  0.72351700  1
  O  87  1  0.69510900  0.62859100  0.57811500  1
  O  89  1  0.80569800  0.62446700  0.72199600  1
  O  90  1  0.86686600  0.66289000  0.60988400  1
  O  109  1  0.29946900  0.97834200  0.06826000  1
  O  116  1  0.06923900  0.65287900  0.93359700  1
  O  118  1  0.13231100  0.82067200  0.05442600  1
  O  119  1  0.18538900  0.83958300  0.93496400  1
  O  139  1  0.67434300  0.69827800  0.40510900  1
  O  146  1  0.58043800  0.92731200  0.26776700  1
  O  148  1  0.68560200  0.86589800  0.38920900  1
  O  149  1  0.65095800  0.81110800  0.27025700  1
  O  169  1  0.02001300  0.32297500  0.73697600  1
  O  176  1  0.34421500  0.41816200  0.60076900  1
  O  178  1  0.17696500  0.31238900  0.72222800  1
  O  179  1  0.15736000  0.34662000  0.60291900  1
