# generated using pymatgen
data_H2C7(N2O)2
_symmetry_space_group_name_H-M   'P 1'
_cell_length_a   9.91893333
_cell_length_b   53.47460000
_cell_length_c   53.47460000
_cell_angle_alpha   120.00000000
_cell_angle_beta   90.00000000
_cell_angle_gamma   90.00000000
_symmetry_Int_Tables_number   1
_chemical_formula_structural   H2C7(N2O)2
_chemical_formula_sum   'H72 C252 N144 O72'
_cell_volume   24563.52509840
_cell_formula_units_Z   36
loop_
 _symmetry_equiv_pos_site_id
 _symmetry_equiv_pos_as_xyz
  1  'x, y, z'
loop_
 _atom_site_type_symbol
 _atom_site_label
 _atom_site_symmetry_multiplicity
 _atom_site_fract_x
 _atom_site_fract_y
 _atom_site_fract_z
 _atom_site_occupancy
  C  1  1  0.99502200  0.83539600  0.32363400  1
  C  3  1  0.99474000  0.82001600  0.35843900  1
  C  5  1  0.95883300  0.78576100  0.30894600  1
  C  7  1  0.99555500  0.47802000  0.15641400  1
  C  9  1  0.99468200  0.52818700  0.17174400  1
  C  11  1  0.95963400  0.51300400  0.20605800  1
  C  13  1  0.99421400  0.66818200  0.51385600  1
  C  15  1  0.99331200  0.63325000  0.46369600  1
  C  17  1  0.95823200  0.68271800  0.47876800  1
  C  19  1  0.99445000  0.15216000  0.67207400  1
  C  21  1  0.99463800  0.16761300  0.63733700  1
  C  23  1  0.95875300  0.20182400  0.68684000  1
  C  25  1  0.99485000  0.50977000  0.83970500  1
  C  27  1  0.99475400  0.45955800  0.82417600  1
  C  29  1  0.95929100  0.47493700  0.79001100  1
  C  31  1  0.99527400  0.31956100  0.48210900  1
  C  33  1  0.99460200  0.35442400  0.53227800  1
  C  35  1  0.95893400  0.30494500  0.51710800  1
  C  37  1  0.96382700  0.51006300  0.67102500  1
  C  39  1  0.98347800  0.45993800  0.63695700  1
  C  41  1  0.96748300  0.47563700  0.68689200  1
  C  43  1  0.96336500  0.32071400  0.84093000  1
  C  45  1  0.98351300  0.35478800  0.82487900  1
  C  47  1  0.96688300  0.30485700  0.79064200  1
  C  49  1  0.96387400  0.15088500  0.48176800  1
  C  51  1  0.98389200  0.16684900  0.53187100  1
  C  53  1  0.96716600  0.20115100  0.51627000  1
  C  55  1  0.96434200  0.47768400  0.32481100  1
  C  57  1  0.98383100  0.52777800  0.35901500  1
  C  59  1  0.96808300  0.51223900  0.30910800  1
  C  61  1  0.96337500  0.66696600  0.15491700  1
  C  63  1  0.98280800  0.63280700  0.17086800  1
  C  65  1  0.96673700  0.68271300  0.20518700  1
  C  67  1  0.96396500  0.83680400  0.51406900  1
  C  69  1  0.98406200  0.82077600  0.46394500  1
  C  71  1  0.96730000  0.78652200  0.47961700  1
  C  73  1  0.01168000  0.88430600  0.21141000  1
  C  75  1  0.02186000  0.93249400  0.25160200  1
  C  77  1  0.02324800  0.89239600  0.25954300  1
  C  79  1  0.01162100  0.31688800  0.10747100  1
  C  81  1  0.02152100  0.30883400  0.05926200  1
  C  83  1  0.02264000  0.35688900  0.09930100  1
  C  85  1  0.01078400  0.78049400  0.67509900  1
  C  87  1  0.02093600  0.74035000  0.68314500  1
  C  89  1  0.02164600  0.73231300  0.63508200  1
  C  91  1  0.01098100  0.10345500  0.78437600  1
  C  93  1  0.02199500  0.05523500  0.74426600  1
  C  95  1  0.02263400  0.09525700  0.73621500  1
  C  97  1  0.01246800  0.67073700  0.88839900  1
  C  99  1  0.02231300  0.67889200  0.93664200  1
  C  101  1  0.02360700  0.63080100  0.89666400  1
  C  103  1  0.01109600  0.20733100  0.32094700  1
  C  105  1  0.02164200  0.24750200  0.31292900  1
  C  107  1  0.02273100  0.25547100  0.36097500  1
  C  109  1  0.99753600  0.66813300  0.78240300  1
  C  111  1  0.01770400  0.67876700  0.74411400  1
  C  113  1  0.99922400  0.62992600  0.73323000  1
  C  115  1  0.99678500  0.20936900  0.88778700  1
  C  117  1  0.01778900  0.24772800  0.93666200  1
  C  119  1  0.99886100  0.25850200  0.89862600  1
  C  121  1  0.99686100  0.10398100  0.32350800  1
  C  123  1  0.01776900  0.05511600  0.31304100  1
  C  125  1  0.99916000  0.09320300  0.36184200  1
  C  127  1  0.99699200  0.31948400  0.21341300  1
  C  129  1  0.01776000  0.30898100  0.25178700  1
  C  131  1  0.99905900  0.35778500  0.26253900  1
  C  133  1  0.99689600  0.77836500  0.10810100  1
  C  135  1  0.01765400  0.74000500  0.05922700  1
  C  137  1  0.99886600  0.72923900  0.09726700  1
  C  139  1  0.99732500  0.88376400  0.67230600  1
  C  141  1  0.01850700  0.93262400  0.68278600  1
  C  143  1  0.99942600  0.89456100  0.63398500  1
  C  145  1  0.99720800  0.85436100  0.31215500  1
  C  147  1  0.92732800  0.85688200  0.27031400  1
  C  148  1  0.01039600  0.88102200  0.27826100  1
  C  150  1  0.07526200  0.87973000  0.32127400  1
  C  152  1  0.15831900  0.89084000  0.34531500  1
  C  156  1  0.99755000  0.44757100  0.13744400  1
  C  158  1  0.92785800  0.40323200  0.13499600  1
  C  159  1  0.00996600  0.38699500  0.11069600  1
  C  161  1  0.07462100  0.43128600  0.11192800  1
  C  163  1  0.15661500  0.44418000  0.10063500  1
  C  167  1  0.99680000  0.67981100  0.54434500  1
  C  169  1  0.92954000  0.72204900  0.58864700  1
  C  170  1  0.00913000  0.71364000  0.60495200  1
  C  172  1  0.07103600  0.67022800  0.56068700  1
  C  174  1  0.15019900  0.64559200  0.54778700  1
  C  178  1  0.99654200  0.13316500  0.68351000  1
  C  180  1  0.92568400  0.13052400  0.72522400  1
  C  181  1  0.00968400  0.10654900  0.71743100  1
  C  183  1  0.07536600  0.10791600  0.67450400  1
  C  185  1  0.15921700  0.09694100  0.65059400  1
  C  189  1  0.99667000  0.54019400  0.85876600  1
  C  191  1  0.92633400  0.58457700  0.86139200  1
  C  192  1  0.01029100  0.60073400  0.88538100  1
  C  194  1  0.07578400  0.55641500  0.88397400  1
  C  196  1  0.15928700  0.54345400  0.89495200  1
  C  200  1  0.99754500  0.30802500  0.45165100  1
  C  202  1  0.92798200  0.26611700  0.40732000  1
  C  203  1  0.01012800  0.27417500  0.39108400  1
  C  205  1  0.07454500  0.31726300  0.43536700  1
  C  207  1  0.15660200  0.34146800  0.44826400  1
  C  211  1  0.94869100  0.54010800  0.68127200  1
  C  213  1  0.06029900  0.58329700  0.68887800  1
  C  214  1  0.98025700  0.60026700  0.71350500  1
  C  216  1  0.85939700  0.55758800  0.70448800  1
  C  218  1  0.75309500  0.54703300  0.71359800  1
  C  222  1  0.94822200  0.31047300  0.86073000  1
  C  224  1  0.06006300  0.30281500  0.89628200  1
  C  225  1  0.98004400  0.27819400  0.88864400  1
  C  227  1  0.85918700  0.28720800  0.85498300  1
  C  229  1  0.75275200  0.27810900  0.83535100  1
  C  233  1  0.94888300  0.13110300  0.45172000  1
  C  235  1  0.06059200  0.09557500  0.40849200  1
  C  236  1  0.98041100  0.10319900  0.39151900  1
  C  238  1  0.85978900  0.13687400  0.43422400  1
  C  240  1  0.75328200  0.15649600  0.44474700  1
  C  244  1  0.94896900  0.44762900  0.31449100  1
  C  246  1  0.05995200  0.40439900  0.30693900  1
  C  247  1  0.98039300  0.38746800  0.28221500  1
  C  249  1  0.86001700  0.43018500  0.29118800  1
  C  251  1  0.75392700  0.44077300  0.28205700  1
  C  255  1  0.94863100  0.67728900  0.13516700  1
  C  257  1  0.06016400  0.68492500  0.09960700  1
  C  258  1  0.98016000  0.70955700  0.10726500  1
  C  260  1  0.85957300  0.70056900  0.14098000  1
  C  262  1  0.75311500  0.70962700  0.16061900  1
  C  266  1  0.94917900  0.85662300  0.54412100  1
  C  268  1  0.06058200  0.89225200  0.58733600  1
  C  269  1  0.98069000  0.88456600  0.60430500  1
  C  271  1  0.85993700  0.85088800  0.56161800  1
  C  273  1  0.75338200  0.83127500  0.55111100  1
  C  277  1  0.93415800  0.75805600  0.28522900  1
  C  279  1  0.01437200  0.70930700  0.25817900  1
  C  280  1  0.95001200  0.70609300  0.23324000  1
  C  282  1  0.85875700  0.75387800  0.26079700  1
  C  284  1  0.77427700  0.77428500  0.26008500  1
  C  288  1  0.93546800  0.51700200  0.23378700  1
  C  290  1  0.01580900  0.53865200  0.28252000  1
  C  291  1  0.95133200  0.51694700  0.28574600  1
  C  293  1  0.86011300  0.49673100  0.23795800  1
  C  295  1  0.77550300  0.47560600  0.21758800  1
  C  299  1  0.93373000  0.70641700  0.47474300  1
  C  301  1  0.01486700  0.73352200  0.45317700  1
  C  302  1  0.95054500  0.75846100  0.47491800  1
  C  304  1  0.85808600  0.73083500  0.49494900  1
  C  306  1  0.77312300  0.73150600  0.51598000  1
  C  310  1  0.93435000  0.22952400  0.71059700  1
  C  312  1  0.01449800  0.27827000  0.73764000  1
  C  313  1  0.95035400  0.28146100  0.76259100  1
  C  315  1  0.85910500  0.23367700  0.73504200  1
  C  317  1  0.77463000  0.21327500  0.73576200  1
  C  321  1  0.93529300  0.47102500  0.76230700  1
  C  323  1  0.01490300  0.44923900  0.71351400  1
  C  324  1  0.95101000  0.47101600  0.71031400  1
  C  326  1  0.86046600  0.49138300  0.75817400  1
  C  328  1  0.77638800  0.51261600  0.77858000  1
  C  332  1  0.93417900  0.28124800  0.52111900  1
  C  334  1  0.01475600  0.25414200  0.54272900  1
  C  335  1  0.95042400  0.22921300  0.52097500  1
  C  337  1  0.85854100  0.25684300  0.50089200  1
  C  339  1  0.77373200  0.25619200  0.47985000  1
  C  343  1  0.99257000  0.82456500  0.38698700  1
  C  345  1  0.90170000  0.80521900  0.41531700  1
  C  346  1  0.97937000  0.82444400  0.43947900  1
  C  348  1  0.06591500  0.84517300  0.41157900  1
  C  350  1  0.15596500  0.86436100  0.41036400  1
  C  354  1  0.99196000  0.55212400  0.16711800  1
  C  356  1  0.89904400  0.59957600  0.18607300  1
  C  357  1  0.97813500  0.60465200  0.16712000  1
  C  359  1  0.06676700  0.55623800  0.14676000  1
  C  361  1  0.15885300  0.53609300  0.12794900  1
  C  365  1  0.99110300  0.60467600  0.43976100  1
  C  367  1  0.89940600  0.57618100  0.39218400  1
  C  368  1  0.97827600  0.55215000  0.38718500  1
  C  370  1  0.06590000  0.58022200  0.43569700  1
  C  372  1  0.15707900  0.58154900  0.45596200  1
  C  376  1  0.99242900  0.16307100  0.60880200  1
  C  378  1  0.90039500  0.18218000  0.58036900  1
  C  379  1  0.97901100  0.16313200  0.55629600  1
  C  381  1  0.06689200  0.14265600  0.58430600  1
  C  383  1  0.15822400  0.12368600  0.58557800  1
  C  387  1  0.99235300  0.43553700  0.82868200  1
  C  389  1  0.90149300  0.38785300  0.80927200  1
  C  390  1  0.97874500  0.38292600  0.82855800  1
  C  392  1  0.06549500  0.43153700  0.84930300  1
  C  394  1  0.15559300  0.45187200  0.86853400  1
  C  398  1  0.99218200  0.38298800  0.55624000  1
  C  400  1  0.90068700  0.41137900  0.60385000  1
  C  401  1  0.97886100  0.43548800  0.60882400  1
  C  403  1  0.06619700  0.40752400  0.56028100  1
  C  405  1  0.15682800  0.40630300  0.53997800  1
  C  409  1  0.00954300  0.96328900  0.26528800  1
  C  411  1  0.06977600  0.00789000  0.26675200  1
  C  412  1  0.01499300  0.02451700  0.29474800  1
  C  414  1  0.94581800  0.98011600  0.29266400  1
  C  416  1  0.86906100  0.96923600  0.30685600  1
  C  420  1  0.00904400  0.29168200  0.02847300  1
  C  422  1  0.07055700  0.24868400  0.98386500  1
  C  423  1  0.01488700  0.25998800  0.96725300  1
  C  425  1  0.94408900  0.30210100  0.01165900  1
  C  427  1  0.86641300  0.32703900  0.02258000  1
  C  431  1  0.00870600  0.72674100  0.70031700  1
  C  433  1  0.07211600  0.72489700  0.74308600  1
  C  434  1  0.01468900  0.69715900  0.73193500  1
  C  436  1  0.94218300  0.69969700  0.69005300  1
  C  438  1  0.86274400  0.68600000  0.66534400  1
  C  442  1  0.00976000  0.02443800  0.73060800  1
  C  444  1  0.07077900  0.97983800  0.72906300  1
  C  445  1  0.01557300  0.96321700  0.70110500  1
  C  447  1  0.94537000  0.00761200  0.70330900  1
  C  449  1  0.86788100  0.01849300  0.68921500  1
  C  453  1  0.00962400  0.69605700  0.96742400  1
  C  455  1  0.07107200  0.73904300  0.01204400  1
  C  456  1  0.01507200  0.72775700  0.02864000  1
  C  458  1  0.94436500  0.68565500  0.98422100  1
  C  460  1  0.86659600  0.66072700  0.97328300  1
  C  464  1  0.00932200  0.26118100  0.29581200  1
  C  466  1  0.07006400  0.26270400  0.25273000  1
  C  467  1  0.01495800  0.29067000  0.26407100  1
  C  469  1  0.94528300  0.28851900  0.30632400  1
  C  471  1  0.86824800  0.30266800  0.33136000  1
  C  475  1  0.97993400  0.80767200  0.13076100  1
  C  477  1  0.08171800  0.85487900  0.15913300  1
  C  478  1  0.99151600  0.86212900  0.18222100  1
  C  480  1  0.88412200  0.81554400  0.15335800  1
  C  482  1  0.78124800  0.79765800  0.15298000  1
  C  486  1  0.98002400  0.31285500  0.18410600  1
  C  488  1  0.08144200  0.29396100  0.13685400  1
  C  489  1  0.99173700  0.30996000  0.12972200  1
  C  491  1  0.88457300  0.32770700  0.17630500  1
  C  493  1  0.78181900  0.34524600  0.19421100  1
  C  497  1  0.98035100  0.86112600  0.67898600  1
  C  499  1  0.08169800  0.83275300  0.69787200  1
  C  500  1  0.99143200  0.80968700  0.68204200  1
  C  502  1  0.88474800  0.83849300  0.66418200  1
  C  504  1  0.78207600  0.83879500  0.64659000  1
  C  508  1  0.97955100  0.18007400  0.86511500  1
  C  510  1  0.08106700  0.13282600  0.83667400  1
  C  511  1  0.99136500  0.12574300  0.81354300  1
  C  513  1  0.88393200  0.17227300  0.84249600  1
  C  515  1  0.78098200  0.19017700  0.84294200  1
  C  519  1  0.98082700  0.67469100  0.81169300  1
  C  521  1  0.08215200  0.69358700  0.85894400  1
  C  522  1  0.99248400  0.67760100  0.86611200  1
  C  524  1  0.88556500  0.65978800  0.81947100  1
  C  526  1  0.78285700  0.64224400  0.80154000  1
  C  530  1  0.97956600  0.12660400  0.31682100  1
  C  532  1  0.08109700  0.15503100  0.29798900  1
  C  533  1  0.99127500  0.17814100  0.31398300  1
  C  535  1  0.88402200  0.14924900  0.33164800  1
  C  537  1  0.78121900  0.14889000  0.34918600  1
  H  151  1  0.87130800  0.84761300  0.25181000  1
  H  155  1  0.27928900  0.85952600  0.33339200  1
  H  162  1  0.87256700  0.39403500  0.14440400  1
  H  166  1  0.27810000  0.46398300  0.13175700  1
  H  173  1  0.87571000  0.74084600  0.59779200  1
  H  177  1  0.27591300  0.65620000  0.52817100  1
  H  184  1  0.86933900  0.13975100  0.74368500  1
  H  188  1  0.27923500  0.12843800  0.66271100  1
  H  195  1  0.87007800  0.59382600  0.85217000  1
  H  199  1  0.27890700  0.52373000  0.86345500  1
  H  206  1  0.87241300  0.24754900  0.39811400  1
  H  210  1  0.27868500  0.32984800  0.46772800  1
  H  217  1  0.13846900  0.59218700  0.68359900  1
  H  221  1  0.66726400  0.52283000  0.67791500  1
  H  228  1  0.13801900  0.30818600  0.91051500  1
  H  232  1  0.66690800  0.31379600  0.84685600  1
  H  239  1  0.13816500  0.08124500  0.39957100  1
  H  243  1  0.66756700  0.14499900  0.46894600  1
  H  250  1  0.13773400  0.39547800  0.31228700  1
  H  254  1  0.66791100  0.46497300  0.31772100  1
  H  261  1  0.13760600  0.67948900  0.08524200  1
  H  265  1  0.66678500  0.67397600  0.14897300  1
  H  272  1  0.13863900  0.90645400  0.59623000  1
  H  276  1  0.66771400  0.84275900  0.52689900  1
  H  283  1  0.07649700  0.69368300  0.25731700  1
  H  287  1  0.66053600  0.78287700  0.29170700  1
  H  294  1  0.07749400  0.55347500  0.29820800  1
  H  298  1  0.66148300  0.49863300  0.20905200  1
  H  305  1  0.07767600  0.73446200  0.43855700  1
  H  309  1  0.65980000  0.69984500  0.49283300  1
  H  316  1  0.07646000  0.29391200  0.73849300  1
  H  320  1  0.66066600  0.20472900  0.70418500  1
  H  327  1  0.07605700  0.43431400  0.69777500  1
  H  331  1  0.66154300  0.48971500  0.78712800  1
  H  338  1  0.07741400  0.25319300  0.55736700  1
  H  342  1  0.66039900  0.28785500  0.50298100  1
  H  349  1  0.84031300  0.78999100  0.41552900  1
  H  353  1  0.27812100  0.83813200  0.38240500  1
  H  360  1  0.83680800  0.61494300  0.20113800  1
  H  364  1  0.27842200  0.53496500  0.15495800  1
  H  371  1  0.83755900  0.57588300  0.37676400  1
  H  375  1  0.27678400  0.60989800  0.45762100  1
  H  382  1  0.83828500  0.19726800  0.58007600  1
  H  386  1  0.27826300  0.15049100  0.61376100  1
  H  393  1  0.84049400  0.37238800  0.79396300  1
  H  397  1  0.27704600  0.45377100  0.84223900  1
  H  404  1  0.83910700  0.41161400  0.61927500  1
  H  408  1  0.27739500  0.37802900  0.53820100  1
  H  415  1  0.11785100  0.01755900  0.25695200  1
  H  419  1  0.73362800  0.94990600  0.27880600  1
  H  426  1  0.12003400  0.22937800  0.97419100  1
  H  430  1  0.73284600  0.31832900  0.04227200  1
  H  437  1  0.12246800  0.73440900  0.76229000  1
  H  441  1  0.73053200  0.71472500  0.67451400  1
  H  448  1  0.11984700  0.97017000  0.73874900  1
  H  452  1  0.73325000  0.03786600  0.71745400  1
  H  459  1  0.12039700  0.75836700  0.02172500  1
  H  463  1  0.73337500  0.66943200  0.95352200  1
  H  470  1  0.11845100  0.25294100  0.23329800  1
  H  474  1  0.73315900  0.27453800  0.32258200  1
  H  481  1  0.16125800  0.86798500  0.16151700  1
  H  485  1  0.69502900  0.78866300  0.11797400  1
  H  492  1  0.16048100  0.28305900  0.12366500  1
  H  496  1  0.69512100  0.31922900  0.20313200  1
  H  503  1  0.16049700  0.83045700  0.70882400  1
  H  507  1  0.69531200  0.87375200  0.67252300  1
  H  514  1  0.16037000  0.11966200  0.83428600  1
  H  518  1  0.69485300  0.19906500  0.87792800  1
  H  525  1  0.16077300  0.70460900  0.87221500  1
  H  529  1  0.69512100  0.66834700  0.79290400  1
  H  536  1  0.16046200  0.15741600  0.28722500  1
  H  540  1  0.69487300  0.11389200  0.32320900  1
  N  2  1  0.00635600  0.84152200  0.35164100  1
  N  4  1  0.97129400  0.79238300  0.33672500  1
  N  6  1  0.97260900  0.80754500  0.30347300  1
  N  8  1  0.00634300  0.49988000  0.15025000  1
  N  10  1  0.97158800  0.53415000  0.19940200  1
  N  12  1  0.97353200  0.48574000  0.18428700  1
  N  14  1  0.00519300  0.64014000  0.49202900  1
  N  16  1  0.97019600  0.65490300  0.45767300  1
  N  18  1  0.97216600  0.68826600  0.50604400  1
  N  20  1  0.00604100  0.14607300  0.64408900  1
  N  22  1  0.97125400  0.19524000  0.65906900  1
  N  24  1  0.97229300  0.18000500  0.69227000  1
  N  26  1  0.00601400  0.48783800  0.84575100  1
  N  28  1  0.97165200  0.45372000  0.79655700  1
  N  30  1  0.97285700  0.50216800  0.81186500  1
  N  32  1  0.00636700  0.34758600  0.50396300  1
  N  34  1  0.97117400  0.33274000  0.53824100  1
  N  36  1  0.97288200  0.29943200  0.48984400  1
  N  38  1  0.97682400  0.48808000  0.64306200  1
  N  40  1  0.97838200  0.45434900  0.65918500  1
  N  42  1  0.95974600  0.50294000  0.69198200  1
  N  44  1  0.97657200  0.34867500  0.84690900  1
  N  46  1  0.97813900  0.33256000  0.79706500  1
  N  48  1  0.95911600  0.29976100  0.81284900  1
  N  50  1  0.97705100  0.14485300  0.50371200  1
  N  52  1  0.97836600  0.19468100  0.53751800  1
  N  54  1  0.95947300  0.17898000  0.48894500  1
  N  56  1  0.97695500  0.49960900  0.35281100  1
  N  58  1  0.97871000  0.53346700  0.33685300  1
  N  60  1  0.96035900  0.48490200  0.30392300  1
  N  62  1  0.97637600  0.63898100  0.14887500  1
  N  64  1  0.97753000  0.65498400  0.19870600  1
  N  66  1  0.95916400  0.68786900  0.18301700  1
  N  68  1  0.97727800  0.84279400  0.49209500  1
  N  70  1  0.97858400  0.79296100  0.45835200  1
  N  72  1  0.95959500  0.80871800  0.50692800  1
  N  74  1  0.01471900  0.91363700  0.22232800  1
  N  76  1  0.02734800  0.92105200  0.26936900  1
  N  78  1  0.01260900  0.87477800  0.23064400  1
  N  80  1  0.01463900  0.29844300  0.07814300  1
  N  82  1  0.02678900  0.33803900  0.07064800  1
  N  84  1  0.01238600  0.34564000  0.11695100  1
  N  86  1  0.01427200  0.76962400  0.69354800  1
  N  88  1  0.02588500  0.72250900  0.65393500  1
  N  90  1  0.01162000  0.76121800  0.64635400  1
  N  92  1  0.01475000  0.07413700  0.77353300  1
  N  94  1  0.02719600  0.06661500  0.72644100  1
  N  96  1  0.01185300  0.11292500  0.76509600  1
  N  98  1  0.01543700  0.68923200  0.91771800  1
  N  100  1  0.02762500  0.64969700  0.92530500  1
  N  102  1  0.01317700  0.64199500  0.87897000  1
  N  104  1  0.01443700  0.21823000  0.30251800  1
  N  106  1  0.02699900  0.26528900  0.34214000  1
  N  108  1  0.01210400  0.22657500  0.34970300  1
  N  110  1  0.01163100  0.68768000  0.77305900  1
  N  112  1  0.01075800  0.64984900  0.72486000  1
  N  114  1  0.99045400  0.63971100  0.76191400  1
  N  116  1  0.01115700  0.21877300  0.91668500  1
  N  118  1  0.01081900  0.26692700  0.92692600  1
  N  120  1  0.98973900  0.22980700  0.87978800  1
  N  122  1  0.01105100  0.07507200  0.30403800  1
  N  124  1  0.01097900  0.06489800  0.34198300  1
  N  126  1  0.98990100  0.11201900  0.35195900  1
  N  128  1  0.01121300  0.29999500  0.22282900  1
  N  130  1  0.01090000  0.33791800  0.27097200  1
  N  132  1  0.99000300  0.34792500  0.23384300  1
  N  134  1  0.01127800  0.76896100  0.07920500  1
  N  136  1  0.01076300  0.72080900  0.06896400  1
  N  138  1  0.98979000  0.75793400  0.11610800  1
  N  140  1  0.01178100  0.91266400  0.69178100  1
  N  142  1  0.01145900  0.92286400  0.65384700  1
  N  144  1  0.99030300  0.87573900  0.64386000  1
  N  146  1  0.92636000  0.84485700  0.28718300  1
  N  149  1  0.07912300  0.89158700  0.30369300  1
  N  157  1  0.92730800  0.43213100  0.14706300  1
  N  160  1  0.07810300  0.40183900  0.10002600  1
  N  168  1  0.92878900  0.70517500  0.55976500  1
  N  171  1  0.07472600  0.68779700  0.59014100  1
  N  179  1  0.92491300  0.14256500  0.70836900  1
  N  182  1  0.07920800  0.09608200  0.69210600  1
  N  190  1  0.92531300  0.55568000  0.84935700  1
  N  193  1  0.07973200  0.58585100  0.89582900  1
  N  201  1  0.92723100  0.28297700  0.43621300  1
  N  204  1  0.07816000  0.29970300  0.40592200  1
  N  212  1  0.04557000  0.55401000  0.67473000  1
  N  215  1  0.88280500  0.58644300  0.71967200  1
  N  223  1  0.04509800  0.31699200  0.88117600  1
  N  226  1  0.88257900  0.27202700  0.86866000  1
  N  234  1  0.04562500  0.11063300  0.43776900  1
  N  237  1  0.88304800  0.12320200  0.40536300  1
  N  245  1  0.04535900  0.43368800  0.32110400  1
  N  248  1  0.88328500  0.40132400  0.27600500  1
  N  256  1  0.04522700  0.67069700  0.11466000  1
  N  259  1  0.88285700  0.71573700  0.12728600  1
  N  267  1  0.04587200  0.87710300  0.55804900  1
  N  270  1  0.88327400  0.86457000  0.59047600  1
  N  278  1  0.00826100  0.73547900  0.28276900  1
  N  281  1  0.87371800  0.72838200  0.23607800  1
  N  289  1  0.00946800  0.53712700  0.25637600  1
  N  292  1  0.87508900  0.49749500  0.26344600  1
  N  300  1  0.00848300  0.70892000  0.45473100  1
  N  303  1  0.87357600  0.75559200  0.49426400  1
  N  311  1  0.00830800  0.25210900  0.71303800  1
  N  314  1  0.87413500  0.25916600  0.75976200  1
  N  322  1  0.00864100  0.45078800  0.73966900  1
  N  325  1  0.87534100  0.49057200  0.73266200  1
  N  333  1  0.00864600  0.27873800  0.54116100  1
  N  336  1  0.87371900  0.23209000  0.50160000  1
  N  344  1  0.91311300  0.80592900  0.39060600  1
  N  347  1  0.05769700  0.84370800  0.43643700  1
  N  355  1  0.91094900  0.57420900  0.18547100  1
  N  358  1  0.05821800  0.58252600  0.14817200  1
  N  366  1  0.91073800  0.60093100  0.41758100  1
  N  369  1  0.05780900  0.55535200  0.40939600  1
  N  377  1  0.91192900  0.18151700  0.60510700  1
  N  380  1  0.05851600  0.14408100  0.55943500  1
  N  388  1  0.91313600  0.41327200  0.80997800  1
  N  391  1  0.05707400  0.40522100  0.84783400  1
  N  399  1  0.91225600  0.38664700  0.57844600  1
  N  402  1  0.05780400  0.43239500  0.58657800  1
  N  410  1  0.06731200  0.97837300  0.25362700  1
  N  413  1  0.95383800  0.00926000  0.30557800  1
  N  421  1  0.06810200  0.26507500  0.01338200  1
  N  424  1  0.95249700  0.28593100  0.98251300  1
  N  432  1  0.06932300  0.73808300  0.72675500  1
  N  435  1  0.95072200  0.68667000  0.70617800  1
  N  443  1  0.06830900  0.00935500  0.74218600  1
  N  446  1  0.95365600  0.97847000  0.69036000  1
  N  454  1  0.06871800  0.72266100  0.98252500  1
  N  457  1  0.95259700  0.70182600  0.01336700  1
  N  465  1  0.06751300  0.24956600  0.26911100  1
  N  468  1  0.95342800  0.30145500  0.29011600  1
  N  476  1  0.07470200  0.82800500  0.13507900  1
  N  479  1  0.89826200  0.84165500  0.17771100  1
  N  487  1  0.07435800  0.29672600  0.16370600  1
  N  490  1  0.89864000  0.32597200  0.15020200  1
  N  498  1  0.07472600  0.85683000  0.69508900  1
  N  501  1  0.89852900  0.81416800  0.66600100  1
  N  509  1  0.07408600  0.15967900  0.86076300  1
  N  512  1  0.89803000  0.14620200  0.81809400  1
  N  520  1  0.07498900  0.69086600  0.83211200  1
  N  523  1  0.89959800  0.66155800  0.84559100  1
  N  531  1  0.07410100  0.13096200  0.30078400  1
  N  534  1  0.89808500  0.17363800  0.32995400  1
  O  153  1  0.16243600  0.91708100  0.36064900  1
  O  154  1  0.26257500  0.87808800  0.34523100  1
  O  164  1  0.16175700  0.43309500  0.07437700  1
  O  165  1  0.26071400  0.45713100  0.11320400  1
  O  175  1  0.15065300  0.63055900  0.55906100  1
  O  176  1  0.25583000  0.64465700  0.53507500  1
  O  186  1  0.16424300  0.07070700  0.63526300  1
  O  187  1  0.26318600  0.10985300  0.65084200  1
  O  197  1  0.16624300  0.55448200  0.92118600  1
  O  198  1  0.26288700  0.53054900  0.88205800  1
  O  208  1  0.15959600  0.35677300  0.43731600  1
  O  209  1  0.26112800  0.34163200  0.46097800  1
  O  219  1  0.72265900  0.55932000  0.73918000  1
  O  220  1  0.66453300  0.53114300  0.69696600  1
  O  230  1  0.72224100  0.25253100  0.82207300  1
  O  231  1  0.66415300  0.29474600  0.83611900  1
  O  241  1  0.72421700  0.17007200  0.43267800  1
  O  242  1  0.66515200  0.15586600  0.46077200  1
  O  252  1  0.72350200  0.42846600  0.25647400  1
  O  253  1  0.66529300  0.45665900  0.29866900  1
  O  263  1  0.72294100  0.73523000  0.17383100  1
  O  264  1  0.66407900  0.69302800  0.15971800  1
  O  274  1  0.72429200  0.81771500  0.56319600  1
  O  275  1  0.66526300  0.83190200  0.53508300  1
  O  285  1  0.77212500  0.77674600  0.23855600  1
  O  286  1  0.67685800  0.78485100  0.27650700  1
  O  296  1  0.77531500  0.45148400  0.21481400  1
  O  297  1  0.67839100  0.48141100  0.20690900  1
  O  307  1  0.77060200  0.75301000  0.53998700  1
  O  308  1  0.67583400  0.71503500  0.51003100  1
  O  318  1  0.77252600  0.21081900  0.75729700  1
  O  319  1  0.67705500  0.20274600  0.71937700  1
  O  329  1  0.77671700  0.53671700  0.78129900  1
  O  330  1  0.67888800  0.50691100  0.78924500  1
  O  340  1  0.77131700  0.23470000  0.45583400  1
  O  341  1  0.67648900  0.27267100  0.48578300  1
  O  351  1  0.16164000  0.88863200  0.43142400  1
  O  352  1  0.26222100  0.85598500  0.39650300  1
  O  362  1  0.16594600  0.53254000  0.10357200  1
  O  363  1  0.26421800  0.53099400  0.13697900  1
  O  373  1  0.16557400  0.56061000  0.45930900  1
  O  374  1  0.26229200  0.59579300  0.46143200  1
  O  384  1  0.16478500  0.09932300  0.56471500  1
  O  385  1  0.26363300  0.13254400  0.59972400  1
  O  395  1  0.16248400  0.45516900  0.89282000  1
  O  396  1  0.26138000  0.45752100  0.86009800  1
  O  406  1  0.16455900  0.42726800  0.53665600  1
  O  407  1  0.26232300  0.39213300  0.53441500  1
  O  417  1  0.88187500  0.98001500  0.33297900  1
  O  418  1  0.76056600  0.95681900  0.29687700  1
  O  428  1  0.87605600  0.34224900  0.01157800  1
  O  429  1  0.75854400  0.32941700  0.03518900  1
  O  439  1  0.87121400  0.65976000  0.65017300  1
  O  440  1  0.75503700  0.69648800  0.66333400  1
  O  450  1  0.87989700  0.00771700  0.66307500  1
  O  451  1  0.75962400  0.03095000  0.69934900  1
  O  461  1  0.87599100  0.64552100  0.98429400  1
  O  462  1  0.75888800  0.65834700  0.96062000  1
  O  472  1  0.88071900  0.32880100  0.34671300  1
  O  473  1  0.75985900  0.29262500  0.33375400  1
  O  483  1  0.75351800  0.79743300  0.17515200  1
  O  484  1  0.69315500  0.78785200  0.13410300  1
  O  494  1  0.75449600  0.36769200  0.19450400  1
  O  495  1  0.69352300  0.33619300  0.20399000  1
  O  505  1  0.75651400  0.81671200  0.62394100  1
  O  506  1  0.69420300  0.85770900  0.65550600  1
  O  516  1  0.75318700  0.19047800  0.82081400  1
  O  517  1  0.69293200  0.19993500  0.86183000  1
  O  527  1  0.75601400  0.61982400  0.80134800  1
  O  528  1  0.69372400  0.65137800  0.79203500  1
  O  538  1  0.75540900  0.17094200  0.37184200  1
  O  539  1  0.69359200  0.12992400  0.34023500  1
