# generated using pymatgen
data_H9C18N4O
_symmetry_space_group_name_H-M   'P 1'
_cell_length_a   17.38690000
_cell_length_b   31.22160000
_cell_length_c   31.22160000
_cell_angle_alpha   90.00000000
_cell_angle_beta   90.00000000
_cell_angle_gamma   90.00000000
_symmetry_Int_Tables_number   1
_chemical_formula_structural   H9C18N4O
_chemical_formula_sum   'H144 C288 N64 O16'
_cell_volume   16948.54680733
_cell_formula_units_Z   16
loop_
 _symmetry_equiv_pos_site_id
 _symmetry_equiv_pos_as_xyz
  1  'x, y, z'
loop_
 _atom_site_type_symbol
 _atom_site_label
 _atom_site_symmetry_multiplicity
 _atom_site_fract_x
 _atom_site_fract_y
 _atom_site_fract_z
 _atom_site_occupancy
  C  1  1  0.36378300  0.31836900  0.60900200  1
  C  2  1  0.28242200  0.32460600  0.61022600  1
  C  3  1  0.25177900  0.36686800  0.61183000  1
  C  4  1  0.30201200  0.40213600  0.60809600  1
  C  5  1  0.38236500  0.39682200  0.60461400  1
  C  6  1  0.41368600  0.35471300  0.60722100  1
  C  7  1  0.23437400  0.28804700  0.61004600  1
  C  8  1  0.49393900  0.34763800  0.60841300  1
  C  10  1  0.39513200  0.27586700  0.60919800  1
  C  11  1  0.34526200  0.23953100  0.60702900  1
  C  12  1  0.37663600  0.19741300  0.60490900  1
  C  13  1  0.45687600  0.19210800  0.60909200  1
  C  14  1  0.50708000  0.22736000  0.61320100  1
  C  15  1  0.47645400  0.26963000  0.61120600  1
  C  16  1  0.26497700  0.24661500  0.60736200  1
  C  18  1  0.52445400  0.30621600  0.61148100  1
  C  23  1  0.42488700  0.43338300  0.59509200  1
  C  24  1  0.58480900  0.21851600  0.61810500  1
  C  25  1  0.33453000  0.16083000  0.59495800  1
  C  26  1  0.17401200  0.37577600  0.61595900  1
  C  31  1  0.86370900  0.27567500  0.98505700  1
  C  32  1  0.78234600  0.26944300  0.98380700  1
  C  33  1  0.75170000  0.22717900  0.98221200  1
  C  34  1  0.80192100  0.19191400  0.98599500  1
  C  35  1  0.88227800  0.19722200  0.98946400  1
  C  36  1  0.91360600  0.23932900  0.98686000  1
  C  37  1  0.73430100  0.30600100  0.98393900  1
  C  38  1  0.99386200  0.24640200  0.98569100  1
  C  40  1  0.89506400  0.31817600  0.98487700  1
  C  41  1  0.84519200  0.35451500  0.98702300  1
  C  42  1  0.87657800  0.39662700  0.98919800  1
  C  43  1  0.95682600  0.40193400  0.98506300  1
  C  44  1  0.00702400  0.36667900  0.98094700  1
  C  45  1  0.97639000  0.32441000  0.98290700  1
  C  46  1  0.76490800  0.34743300  0.98661600  1
  C  48  1  0.02438400  0.28782300  0.98262200  1
  C  53  1  0.92477900  0.16065100  0.99898300  1
  C  54  1  0.08475000  0.37552300  0.97605000  1
  C  55  1  0.83441400  0.43322000  0.99902100  1
  C  56  1  0.67393400  0.21827700  0.97806500  1
  C  61  1  0.61359800  0.48504300  0.81821700  1
  C  62  1  0.53222000  0.48370400  0.82438600  1
  C  63  1  0.50146800  0.48211900  0.86662900  1
  C  64  1  0.55159700  0.48597500  0.90192800  1
  C  65  1  0.63194900  0.48955000  0.89667200  1
  C  66  1  0.66339700  0.48694900  0.85459900  1
  C  67  1  0.48427400  0.48374300  0.78778900  1
  C  68  1  0.74367100  0.48587900  0.84759400  1
  C  70  1  0.64505900  0.48485700  0.77574300  1
  C  71  1  0.59527400  0.48693900  0.73936400  1
  C  72  1  0.62676400  0.48914900  0.69727800  1
  C  73  1  0.70702300  0.48500100  0.69203500  1
  C  74  1  0.75714400  0.48092700  0.72732800  1
  C  75  1  0.72640800  0.48294200  0.76957400  1
  C  76  1  0.51497100  0.48646500  0.74638200  1
  C  78  1  0.77430600  0.48275000  0.80620300  1
  C  83  1  0.67421400  0.49930200  0.93325600  1
  C  84  1  0.83489800  0.47601100  0.71854500  1
  C  85  1  0.58465200  0.49893400  0.66065600  1
  C  86  1  0.42368800  0.47789700  0.87546900  1
  C  91  1  0.11372000  0.10899300  0.77572700  1
  C  92  1  0.03235400  0.11024100  0.76950700  1
  C  93  1  0.00168400  0.11182400  0.72724800  1
  C  94  1  0.05189700  0.10805600  0.69197700  1
  C  95  1  0.13226200  0.10461100  0.69726800  1
  C  96  1  0.16359700  0.10717400  0.73937400  1
  C  97  1  0.98432600  0.11009500  0.80607400  1
  C  98  1  0.24385800  0.10831100  0.74643300  1
  C  100  1  0.14509500  0.10919000  0.81822300  1
  C  101  1  0.09524500  0.10705800  0.85457000  1
  C  102  1  0.12663900  0.10491700  0.89668200  1
  C  103  1  0.20688900  0.10906200  0.90197300  1
  C  104  1  0.25706900  0.11317000  0.86670900  1
  C  105  1  0.22642400  0.11116100  0.82444300  1
  C  106  1  0.01495600  0.10745800  0.84750100  1
  C  108  1  0.27440000  0.11139000  0.78785000  1
  C  113  1  0.17466800  0.09490800  0.66071000  1
  C  114  1  0.33480200  0.11805900  0.87553900  1
  C  115  1  0.08453100  0.09495600  0.93325900  1
  C  116  1  0.92391000  0.11596100  0.71835900  1
  C  121  1  0.86358000  0.81797000  0.10437700  1
  C  122  1  0.78197500  0.82355300  0.10572200  1
  C  123  1  0.74984000  0.86555300  0.10707500  1
  C  124  1  0.79900200  0.90104100  0.10136800  1
  C  125  1  0.87935300  0.89616300  0.09771700  1
  C  126  1  0.91233600  0.85466600  0.10211400  1
  C  127  1  0.73523900  0.78651400  0.10564800  1
  C  128  1  0.99279800  0.84838200  0.10390200  1
  C  130  1  0.89657900  0.77584200  0.10457500  1
  C  131  1  0.84787000  0.73917500  0.10157100  1
  C  132  1  0.88099900  0.69767200  0.09769700  1
  C  133  1  0.96115700  0.69278100  0.10248400  1
  C  134  1  0.01022700  0.72821500  0.10897400  1
  C  135  1  0.97811200  0.77024700  0.10714900  1
  C  136  1  0.76733000  0.74549500  0.10212200  1
  C  138  1  0.02470000  0.80736500  0.10793300  1
  C  143  1  0.92195200  0.93216400  0.08727400  1
  C  144  1  0.08810800  0.71988100  0.11561900  1
  C  145  1  0.83876800  0.66158500  0.08705600  1
  C  146  1  0.67181500  0.87398900  0.11219900  1
  C  151  1  0.36357600  0.77607300  0.48966200  1
  C  152  1  0.28197200  0.77049000  0.48832000  1
  C  153  1  0.24984000  0.72849000  0.48698100  1
  C  154  1  0.29899800  0.69300500  0.49272000  1
  C  155  1  0.37935200  0.69788300  0.49635300  1
  C  156  1  0.41233200  0.73937700  0.49193300  1
  C  157  1  0.23523500  0.80752900  0.48837100  1
  C  158  1  0.49279400  0.74566100  0.49013600  1
  C  160  1  0.39657200  0.81820100  0.48946300  1
  C  161  1  0.34786800  0.85486500  0.49248700  1
  C  162  1  0.38100100  0.89636800  0.49638500  1
  C  163  1  0.46116000  0.90125900  0.49160300  1
  C  164  1  0.51022100  0.86582800  0.48508200  1
  C  165  1  0.47810500  0.82379300  0.48688500  1
  C  166  1  0.26732500  0.84854800  0.49192300  1
  C  168  1  0.52469200  0.78667400  0.48606200  1
  C  173  1  0.42195800  0.66188200  0.50679100  1
  C  174  1  0.58809600  0.87416200  0.47840300  1
  C  175  1  0.33876200  0.93245200  0.50701800  1
  C  176  1  0.17181500  0.72004700  0.48185000  1
  C  181  1  0.11352600  0.98969100  0.31794400  1
  C  182  1  0.03191700  0.98835600  0.32351400  1
  C  183  1  0.99975800  0.98704600  0.36551000  1
  C  184  1  0.04891100  0.99276300  0.40100500  1
  C  185  1  0.12926600  0.99639500  0.39613700  1
  C  186  1  0.16226300  0.99196800  0.35464900  1
  C  187  1  0.98519500  0.98838800  0.28646900  1
  C  188  1  0.24273000  0.99017800  0.34837500  1
  C  190  1  0.14654300  0.98947700  0.27582400  1
  C  191  1  0.09785600  0.99249100  0.23915000  1
  C  192  1  0.13101300  0.99639500  0.19765400  1
  C  193  1  0.21116800  0.99159400  0.19277300  1
  C  194  1  0.26021400  0.98507600  0.22821400  1
  C  195  1  0.22807700  0.98689200  0.27024100  1
  C  196  1  0.01731000  0.99194000  0.24545600  1
  C  198  1  0.27464600  0.98607500  0.30736800  1
  C  203  1  0.17185700  0.00679700  0.43215300  1
  C  204  1  0.33809500  0.97839800  0.21989200  1
  C  205  1  0.08878700  0.00702900  0.16156400  1
  C  206  1  0.92173100  0.98190200  0.37394000  1
  C  211  1  0.61354900  0.60432900  0.27610600  1
  C  212  1  0.53194400  0.60567800  0.27052600  1
  C  213  1  0.49980500  0.60702300  0.22852700  1
  C  214  1  0.54896400  0.60130600  0.19303800  1
  C  215  1  0.62932300  0.59767700  0.19791000  1
  C  216  1  0.66230200  0.60205500  0.23940600  1
  C  217  1  0.48521200  0.60561700  0.30756500  1
  C  218  1  0.74276800  0.60382300  0.24568700  1
  C  220  1  0.64655100  0.60454100  0.31823000  1
  C  221  1  0.59785100  0.60155900  0.35490200  1
  C  222  1  0.63098600  0.59769600  0.39640600  1
  C  223  1  0.71114900  0.60246800  0.40129000  1
  C  224  1  0.76020400  0.60895400  0.36585000  1
  C  225  1  0.72808400  0.60710900  0.32382100  1
  C  226  1  0.51730700  0.60212900  0.34858900  1
  C  228  1  0.77467100  0.60786800  0.28670100  1
  C  233  1  0.67190700  0.58724200  0.16190000  1
  C  234  1  0.83809000  0.61559100  0.37416800  1
  C  235  1  0.58875800  0.58704300  0.43249000  1
  C  236  1  0.42178000  0.61214800  0.22008800  1
  C  241  1  0.82709300  0.16300500  0.69321000  1
  C  242  1  0.79144300  0.19912600  0.71244000  1
  C  243  1  0.71743000  0.21237100  0.69787000  1
  C  244  1  0.67981500  0.19060600  0.66417900  1
  C  245  1  0.71601200  0.15475800  0.64548000  1
  C  246  1  0.78909300  0.14141000  0.65951200  1
  C  248  1  0.71717400  0.26915400  0.74892800  1
  C  249  1  0.78932600  0.25589300  0.76404900  1
  C  258  1  0.32704600  0.43092000  0.90087400  1
  C  259  1  0.29136400  0.39482000  0.88162500  1
  C  260  1  0.21735200  0.38157900  0.89620500  1
  C  261  1  0.17977600  0.40332700  0.92992200  1
  C  262  1  0.21601400  0.43915500  0.94863600  1
  C  263  1  0.28909200  0.45249800  0.93459800  1
  C  265  1  0.21703800  0.32482700  0.84511200  1
  C  266  1  0.28918100  0.33809000  0.82997800  1
  C  275  1  0.07716900  0.40087700  0.66302600  1
  C  276  1  0.04148100  0.38166600  0.69914500  1
  C  277  1  0.96747400  0.39626800  0.71237600  1
  C  278  1  0.92990600  0.42996300  0.69059300  1
  C  279  1  0.96612800  0.44863200  0.65474000  1
  C  280  1  0.03920400  0.43457200  0.64140600  1
  C  282  1  0.96710900  0.34521300  0.76916100  1
  C  283  1  0.03925100  0.33006000  0.75591400  1
  C  292  1  0.57712000  0.19319300  0.93097900  1
  C  293  1  0.54146200  0.21244200  0.89486900  1
  C  294  1  0.46744700  0.19787100  0.88162200  1
  C  295  1  0.42984300  0.16416900  0.90337600  1
  C  296  1  0.46605600  0.14544600  0.93920400  1
  C  297  1  0.53912800  0.15948300  0.95256000  1
  C  299  1  0.46716500  0.24896000  0.82486600  1
  C  300  1  0.53931600  0.26408100  0.83812900  1
  C  309  1  0.32685300  0.65815700  0.19049100  1
  C  310  1  0.29215400  0.69543900  0.20803900  1
  C  311  1  0.21859100  0.70881800  0.19276400  1
  C  312  1  0.18052300  0.68620200  0.15974800  1
  C  313  1  0.21571000  0.64919900  0.14279400  1
  C  314  1  0.28825300  0.63564100  0.15761800  1
  C  316  1  0.21930500  0.76723000  0.24199600  1
  C  317  1  0.29150300  0.75425100  0.25735100  1
  C  326  1  0.82681700  0.93590800  0.40356100  1
  C  327  1  0.79212100  0.89862600  0.38600600  1
  C  328  1  0.71855400  0.88524700  0.40127100  1
  C  329  1  0.68046200  0.90787300  0.43427000  1
  C  330  1  0.71564600  0.94487300  0.45124000  1
  C  331  1  0.78819900  0.95842400  0.43642600  1
  C  333  1  0.71930400  0.82682600  0.35205500  1
  C  334  1  0.79151100  0.83980100  0.33671300  1
  C  343  1  0.57687000  0.90357400  0.15821100  1
  C  344  1  0.54214000  0.88601900  0.19547900  1
  C  345  1  0.46855600  0.90128400  0.20883200  1
  C  346  1  0.43048300  0.93427800  0.18618900  1
  C  347  1  0.46569800  0.95123700  0.14919400  1
  C  348  1  0.53826500  0.93642700  0.13566600  1
  C  350  1  0.46924200  0.85206800  0.26725500  1
  C  351  1  0.54146700  0.83672600  0.25430400  1
  C  360  1  0.07691100  0.69044600  0.43582100  1
  C  361  1  0.04220600  0.70802400  0.39855800  1
  C  362  1  0.96863600  0.69275900  0.38517600  1
  C  363  1  0.93057100  0.65972400  0.40776600  1
  C  364  1  0.96574100  0.64277100  0.44477900  1
  C  365  1  0.03829500  0.65758100  0.45834000  1
  C  367  1  0.96934700  0.74202300  0.32679300  1
  C  368  1  0.04155100  0.75736500  0.33977500  1
  C  377  1  0.20823400  0.06715600  0.47628600  1
  C  378  1  0.28786200  0.06479600  0.48685000  1
  C  379  1  0.31842000  0.09355200  0.51811000  1
  C  380  1  0.27190300  0.12522200  0.53760600  1
  C  381  1  0.19390100  0.12775800  0.52588000  1
  C  382  1  0.16244500  0.09879000  0.49618900  1
  C  384  1  0.44383200  0.06410800  0.50813900  1
  C  385  1  0.41504500  0.03660800  0.47647200  1
  C  394  1  0.70822500  0.52686700  0.11777900  1
  C  395  1  0.78784500  0.52921800  0.10719400  1
  C  396  1  0.81836500  0.50046500  0.07591600  1
  C  397  1  0.77180400  0.46881400  0.05642000  1
  C  398  1  0.69381100  0.46628700  0.06816700  1
  C  399  1  0.66240000  0.49524800  0.09788000  1
  C  401  1  0.94380200  0.52987400  0.08587400  1
  C  402  1  0.91504700  0.55738700  0.11753900  1
  C  411  1  0.45830700  0.61785200  0.56725600  1
  C  412  1  0.53788000  0.60718300  0.56479900  1
  C  413  1  0.56837800  0.57583900  0.59348400  1
  C  414  1  0.52182000  0.55631100  0.62511900  1
  C  415  1  0.44384200  0.56808500  0.62768500  1
  C  416  1  0.41242100  0.59783400  0.59876600  1
  C  418  1  0.69379400  0.58577200  0.56404000  1
  C  419  1  0.66506200  0.61749600  0.53658800  1
  C  428  1  0.95830400  0.97616900  0.02677900  1
  C  429  1  0.03790000  0.98680200  0.02919900  1
  C  430  1  0.06843200  0.01807500  0.00044000  1
  C  431  1  0.02182900  0.03753900  0.96878300  1
  C  432  1  0.94377800  0.02593000  0.96633600  1
  C  433  1  0.91240700  0.99616400  0.99525800  1
  C  435  1  0.19385000  0.00814400  0.02989000  1
  C  436  1  0.16508200  0.97648900  0.05741200  1
  C  445  1  0.55211400  0.52652100  0.47628000  1
  C  446  1  0.47264000  0.52917000  0.48715100  1
  C  447  1  0.44208200  0.50044900  0.51845300  1
  C  448  1  0.48853700  0.46862200  0.53775000  1
  C  449  1  0.56644700  0.46595100  0.52589600  1
  C  450  1  0.59788600  0.49485400  0.49613200  1
  C  452  1  0.31685100  0.53026500  0.50885000  1
  C  453  1  0.34565300  0.55779400  0.47721200  1
  C  462  1  0.05207600  0.06754000  0.11777800  1
  C  463  1  0.97259900  0.06486000  0.10690800  1
  C  464  1  0.94201000  0.09354000  0.07558500  1
  C  465  1  0.98841300  0.12539200  0.05631600  1
  C  466  1  0.06631700  0.12814100  0.06818300  1
  C  467  1  0.09779500  0.09924400  0.09793900  1
  C  469  1  0.81683800  0.06364200  0.08514800  1
  C  470  1  0.84565600  0.03617400  0.11683300  1
  C  479  1  0.30203500  0.97629000  0.56747300  1
  C  480  1  0.22253800  0.98710300  0.56483100  1
  C  481  1  0.19191700  0.01837600  0.59355800  1
  C  482  1  0.23829800  0.03762700  0.62543300  1
  C  483  1  0.31620200  0.02576200  0.62818100  1
  C  484  1  0.34771200  0.99604600  0.59924900  1
  C  486  1  0.06674800  0.00880100  0.56366200  1
  C  487  1  0.09559200  0.97715500  0.53615800  1
  C  496  1  0.80194800  0.61778200  0.02660500  1
  C  497  1  0.72245300  0.60698100  0.02928200  1
  C  498  1  0.69178700  0.57572100  0.00055900  1
  C  499  1  0.73806600  0.55640100  0.96866700  1
  C  500  1  0.81594600  0.56832800  0.96587400  1
  C  501  1  0.84753400  0.59803900  0.99478400  1
  C  503  1  0.56663000  0.58536800  0.03046300  1
  C  504  1  0.59553300  0.61699400  0.05797000  1
  H  9  1  0.27917800  0.43249000  0.60678900  1
  H  17  1  0.47972700  0.16174700  0.60803200  1
  H  19  1  0.22724800  0.22146700  0.60710900  1
  H  20  1  0.17580100  0.29103500  0.61083400  1
  H  21  1  0.58298700  0.30327800  0.61289100  1
  H  22  1  0.53166600  0.37278700  0.60844200  1
  H  27  1  0.41802900  0.45980100  0.61253800  1
  H  28  1  0.62125100  0.22607700  0.59472700  1
  H  29  1  0.34001800  0.13470100  0.61299600  1
  H  30  1  0.13925100  0.37127600  0.59106000  1
  H  39  1  0.77908300  0.16155800  0.98726700  1
  H  47  1  0.97967100  0.43229700  0.98609100  1
  H  49  1  0.72717500  0.37257900  0.98691800  1
  H  50  1  0.67572900  0.30301500  0.98317300  1
  H  51  1  0.08292500  0.29076000  0.98127700  1
  H  52  1  0.03158900  0.22125100  0.98568400  1
  H  57  1  0.91779700  0.13421400  0.98158100  1
  H  58  1  0.12116300  0.36805300  0.99947000  1
  H  59  1  0.84014600  0.45945200  0.98115900  1
  H  60  1  0.63914600  0.22279800  0.00295200  1
  H  69  1  0.52867000  0.48729200  0.93226000  1
  H  77  1  0.72993400  0.48601700  0.66168700  1
  H  79  1  0.47730900  0.48667000  0.72120400  1
  H  80  1  0.42569600  0.48291000  0.79072600  1
  H  81  1  0.83285600  0.48144600  0.80331400  1
  H  82  1  0.78132500  0.48592100  0.87277800  1
  H  87  1  0.66795300  0.48150700  0.95950100  1
  H  88  1  0.87136200  0.49934400  0.72621300  1
  H  89  1  0.59062200  0.48114500  0.63439200  1
  H  90  1  0.38872200  0.50263400  0.87056500  1
  H  99  1  0.02903000  0.10672200  0.66162900  1
  H  107  1  0.22974900  0.10801400  0.93233000  1
  H  109  1  0.97724000  0.10716100  0.87265700  1
  H  110  1  0.92575400  0.11088900  0.80309900  1
  H  111  1  0.33293800  0.11278100  0.79077700  1
  H  112  1  0.28156500  0.10834000  0.72127400  1
  H  117  1  0.16793900  0.11250900  0.63437600  1
  H  118  1  0.37118600  0.09460500  0.86812500  1
  H  119  1  0.08997400  0.11299400  0.95939200  1
  H  120  1  0.88909400  0.09111000  0.72300000  1
  H  129  1  0.77553900  0.93114800  0.09915600  1
  H  137  1  0.98461400  0.66265400  0.10063900  1
  H  139  1  0.73041900  0.72004100  0.10131100  1
  H  140  1  0.67657400  0.78887800  0.10643100  1
  H  141  1  0.08328300  0.80513600  0.10971800  1
  H  142  1  0.02969800  0.87386100  0.10369400  1
  H  147  1  0.94959900  0.94794100  0.11010700  1
  H  148  1  0.12685000  0.73253600  0.09588200  1
  H  149  1  0.81189200  0.64540700  0.10989200  1
  H  150  1  0.63532800  0.86597200  0.08901200  1
  H  159  1  0.27554300  0.66289500  0.49491800  1
  H  167  1  0.48460900  0.93138900  0.49343500  1
  H  169  1  0.23041200  0.87399900  0.49279400  1
  H  170  1  0.17656700  0.80516500  0.48766000  1
  H  171  1  0.58328000  0.78890400  0.48433800  1
  H  172  1  0.52969500  0.72018500  0.49036300  1
  H  177  1  0.44956400  0.64609500  0.48395100  1
  H  178  1  0.62686400  0.86149100  0.49811400  1
  H  179  1  0.31184200  0.94861100  0.48418200  1
  H  180  1  0.13531100  0.72809000  0.50502000  1
  H  189  1  0.02543600  0.99496600  0.43110900  1
  H  197  1  0.23463400  0.99342300  0.16264800  1
  H  199  1  0.98041300  0.99280100  0.21999800  1
  H  200  1  0.92653000  0.98769600  0.28882800  1
  H  201  1  0.33328367  0.98434600  0.30515100  1
  H  202  1  0.27962100  0.99038900  0.37385700  1
  H  207  1  0.19944400  0.98393200  0.44792100  1
  H  208  1  0.37685600  0.99809600  0.23259000  1
  H  209  1  0.06186500  0.98419800  0.14540000  1
  H  210  1  0.88522000  0.00506100  0.36587500  1
  H  219  1  0.52549800  0.59909200  0.16293300  1
  H  227  1  0.73461200  0.60063600  0.43141700  1
  H  229  1  0.48040000  0.60128600  0.37404300  1
  H  230  1  0.42654800  0.60639200  0.30520300  1
  H  231  1  0.83325200  0.60966200  0.28892500  1
  H  232  1  0.77966600  0.60363400  0.22020700  1
  H  237  1  0.69948200  0.61009100  0.14611100  1
  H  238  1  0.87679400  0.59577400  0.36159600  1
  H  239  1  0.56180400  0.60986400  0.44865200  1
  H  240  1  0.38528800  0.58896500  0.22811500  1
  H  251  1  0.68988300  0.29502600  0.76185500  1
  H  252  1  0.81468700  0.11579900  0.64483000  1
  H  253  1  0.68917500  0.13809100  0.62153200  1
  H  255  1  0.87432700  0.21317900  0.75662800  1
  H  268  1  0.18973100  0.29896600  0.83217500  1
  H  269  1  0.31471500  0.47809600  0.94928600  1
  H  270  1  0.18920700  0.45581000  0.97260000  1
  H  272  1  0.37419900  0.38079500  0.83740200  1
  H  285  1  0.93977900  0.33229600  0.79502100  1
  H  286  1  0.06481400  0.44923100  0.61578900  1
  H  287  1  0.93931900  0.47257700  0.63805600  1
  H  289  1  0.12428000  0.33743400  0.71321200  1
  H  302  1  0.43986300  0.26190100  0.79900200  1
  H  303  1  0.56472600  0.14479500  0.97816700  1
  H  304  1  0.43922500  0.12149100  0.95586200  1
  H  306  1  0.62431700  0.25665300  0.88084000  1
  H  319  1  0.19226400  0.79357400  0.25417900  1
  H  320  1  0.31307800  0.60918200  0.14408000  1
  H  321  1  0.18859400  0.63187400  0.11941800  1
  H  323  1  0.37555000  0.71070400  0.25149300  1
  H  336  1  0.69227300  0.80047900  0.33987400  1
  H  337  1  0.81302400  0.98488400  0.44997100  1
  H  338  1  0.68852300  0.96219700  0.47461400  1
  H  340  1  0.87555400  0.88334800  0.34258100  1
  H  353  1  0.44218500  0.83988800  0.29359300  1
  H  354  1  0.56311100  0.94996200  0.10920900  1
  H  355  1  0.43858700  0.97460500  0.13185600  1
  H  357  1  0.62555600  0.84259100  0.21078500  1
  H  370  1  0.94230300  0.75421600  0.30045700  1
  H  371  1  0.06311200  0.64403900  0.48480300  1
  H  372  1  0.93861400  0.61939900  0.46210400  1
  H  374  1  0.12561500  0.75147400  0.38330600  1
  H  387  1  0.50089200  0.06437300  0.51589400  1
  H  388  1  0.10596000  0.10245100  0.48758300  1
  H  389  1  0.16009500  0.15190900  0.53760600  1
  H  391  1  0.32166400  0.01955500  0.44370300  1
  H  404  1  0.00084200  0.52963700  0.07807600  1
  H  405  1  0.60591700  0.49159600  0.10649600  1
  H  406  1  0.65997500  0.44215300  0.05643200  1
  H  408  1  0.82170100  0.57444300  0.15034200  1
  H  421  1  0.75082200  0.57794400  0.56424500  1
  H  422  1  0.35593100  0.60643700  0.60241700  1
  H  423  1  0.40998200  0.55626000  0.65176400  1
  H  425  1  0.57176700  0.65040600  0.51965100  1
  H  438  1  0.25089100  0.01594600  0.02966000  1
  H  439  1  0.85587400  0.98761900  0.99168700  1
  H  440  1  0.90994800  0.03770000  0.94221800  1
  H  442  1  0.07175100  0.94365900  0.07443000  1
  H  455  1  0.25986600  0.53017900  0.51678100  1
  H  456  1  0.65426700  0.49107100  0.48737200  1
  H  457  1  0.60017700  0.44173600  0.53756400  1
  H  459  1  0.43892500  0.57467300  0.44427300  1
  H  472  1  0.75982700  0.06376500  0.07728300  1
  H  473  1  0.15416400  0.10305500  0.10671100  1
  H  474  1  0.10000700  0.15237700  0.05652400  1
  H  476  1  0.93893900  0.01935600  0.14980000  1
  H  489  1  0.00972800  0.01664700  0.56380000  1
  H  490  1  0.40407600  0.98727000  0.60307100  1
  H  491  1  0.34986300  0.03738200  0.65245000  1
  H  493  1  0.18890900  0.94424500  0.51928900  1
  H  506  1  0.50961700  0.57750200  0.03036900  1
  H  507  1  0.90389800  0.60680200  0.99092800  1
  H  508  1  0.84955500  0.55673400  0.94157400  1
  H  510  1  0.68890500  0.64985600  0.07482500  1
  N  247  1  0.68389000  0.24692700  0.71668100  1
  N  250  1  0.82435800  0.22168400  0.74537900  1
  N  256  1  0.89817600  0.15191700  0.70434300  1
  N  257  1  0.60866400  0.20146300  0.65314200  1
  N  264  1  0.18378600  0.34703900  0.87738100  1
  N  267  1  0.32425200  0.37227800  0.84867000  1
  N  273  1  0.39812600  0.44200900  0.88975700  1
  N  274  1  0.10863100  0.39246900  0.94096800  1
  N  281  1  0.93388600  0.37747300  0.74692600  1
  N  284  1  0.07434100  0.34872100  0.72171600  1
  N  290  1  0.14823400  0.38969200  0.65194400  1
  N  291  1  0.85874300  0.44101600  0.70141300  1
  N  298  1  0.43389700  0.21669800  0.84707500  1
  N  301  1  0.57436600  0.24539000  0.87232000  1
  N  307  1  0.64818500  0.20435500  0.94207700  1
  N  308  1  0.35870200  0.15313400  0.89248600  1
  N  315  1  0.18566000  0.74414000  0.21046000  1
  N  318  1  0.32569600  0.71908700  0.23999700  1
  N  324  1  0.39773400  0.64671000  0.20204800  1
  N  325  1  0.10962400  0.69697400  0.14775000  1
  N  332  1  0.68563600  0.84992200  0.38357800  1
  N  335  1  0.82569300  0.87496900  0.35406600  1
  N  341  1  0.89770400  0.94735200  0.39201800  1
  N  342  1  0.60957500  0.89710100  0.44628800  1
  N  349  1  0.43560000  0.88359100  0.24414500  1
  N  352  1  0.57568200  0.85407700  0.21914500  1
  N  358  1  0.64775600  0.89201800  0.14676600  1
  N  359  1  0.35958400  0.94629500  0.19694100  1
  N  366  1  0.93570400  0.71047400  0.34987000  1
  N  369  1  0.07574300  0.73999500  0.37493000  1
  N  375  1  0.14778700  0.70199900  0.44728700  1
  N  376  1  0.85965200  0.64775400  0.39701100  1
  N  383  1  0.39488600  0.09188400  0.52712600  1
  N  386  1  0.33884900  0.03806700  0.46666200  1
  N  392  1  0.17411600  0.04606500  0.44441400  1
  N  393  1  0.30348500  0.15835000  0.55771100  1
  N  400  1  0.89482200  0.50212400  0.06687800  1
  N  403  1  0.83885400  0.55594600  0.12736300  1
  N  409  1  0.67413200  0.54796800  0.14965400  1
  N  410  1  0.80331300  0.43569300  0.03626300  1
  N  417  1  0.64481500  0.56675900  0.59177700  1
  N  420  1  0.58889600  0.62736800  0.53808300  1
  N  426  1  0.42420100  0.64966700  0.54607500  1
  N  427  1  0.55332100  0.53611700  0.65821800  1
  N  434  1  0.14488700  0.02712200  0.00211500  1
  N  437  1  0.08890200  0.96664600  0.05594600  1
  N  443  1  0.92418900  0.94437300  0.04799000  1
  N  444  1  0.05350200  0.05770400  0.93571200  1
  N  451  1  0.36570400  0.50232000  0.52766100  1
  N  454  1  0.42175100  0.55613800  0.46720900  1
  N  460  1  0.58612700  0.54767300  0.44439500  1
  N  461  1  0.45686300  0.43562500  0.55806300  1
  N  468  1  0.86564200  0.09163100  0.06636100  1
  N  471  1  0.92175000  0.03786100  0.12684300  1
  N  477  1  0.08610700  0.04640000  0.14966400  1
  N  478  1  0.95682800  0.15841600  0.03599500  1
  N  485  1  0.11553800  0.02757500  0.59166800  1
  N  488  1  0.17170000  0.96716800  0.53782700  1
  N  494  1  0.33608900  0.94437300  0.54638200  1
  N  495  1  0.20666300  0.05789200  0.65847500  1
  N  502  1  0.61539300  0.56655400  0.00247100  1
  N  505  1  0.67164500  0.62695100  0.05627500  1
  N  511  1  0.83603900  0.64969200  0.04768300  1
  N  512  1  0.70628100  0.53629300  0.93558800  1
  O  254  1  0.82242500  0.27669300  0.79726600  1
  O  271  1  0.32223900  0.31731200  0.79673500  1
  O  288  1  0.07226400  0.29681300  0.77670700  1
  O  305  1  0.57238800  0.29732100  0.81735200  1
  O  322  1  0.32577600  0.77639900  0.28932400  1
  O  339  1  0.82580700  0.81764300  0.30475400  1
  O  356  1  0.57573400  0.80476500  0.27647500  1
  O  373  1  0.07582400  0.78934600  0.31763500  1
  O  390  1  0.46327700  0.00996400  0.45533900  1
  O  407  1  0.96330200  0.58403200  0.13865500  1
  O  424  1  0.71333400  0.63865200  0.50998400  1
  O  441  1  0.21333500  0.95537200  0.08405700  1
  O  458  1  0.29751500  0.58464100  0.45627500  1
  O  475  1  0.79753600  0.00934100  0.13780400  1
  O  492  1  0.04748800  0.95620200  0.50930200  1
  O  509  1  0.54747200  0.63796600  0.08483400  1
