# generated using pymatgen
data_H6C12N5O
_symmetry_space_group_name_H-M   'P 1'
_cell_length_a   15.60287352
_cell_length_b   15.60285000
_cell_length_c   34.60920000
_cell_angle_alpha   90.96800000
_cell_angle_beta   90.96804731
_cell_angle_gamma   119.97185046
_symmetry_Int_Tables_number   1
_chemical_formula_structural   H6C12N5O
_chemical_formula_sum   'H36 C72 N30 O6'
_cell_volume   7294.67570182
_cell_formula_units_Z   6
loop_
 _symmetry_equiv_pos_site_id
 _symmetry_equiv_pos_as_xyz
  1  'x, y, z'
loop_
 _atom_site_type_symbol
 _atom_site_label
 _atom_site_symmetry_multiplicity
 _atom_site_fract_x
 _atom_site_fract_y
 _atom_site_fract_z
 _atom_site_occupancy
  C  1  1  0.06159600  0.77677400  0.14731000  1
  C  3  1  0.08470100  0.93039900  0.17129100  1
  C  5  1  0.05627000  0.00252350  0.17220300  1
  C  9  1  0.91031800  0.73358350  0.85261400  1
  C  11  1  0.79560000  0.74014800  0.80969600  1
  C  13  1  0.93332600  0.88793750  0.83366600  1
  C  15  1  0.98862000  0.98944250  0.83334800  1
  C  16  1  0.93654400  0.68221900  0.87348100  1
  C  17  1  0.70919300  0.69839250  0.79297700  1
  C  20  1  0.29379800  0.26466200  0.55763000  1
  C  22  1  0.25924400  0.10882300  0.57913400  1
  C  24  1  0.28867500  0.05266600  0.59453800  1
  C  51  1  0.43390100  0.42974100  0.62114100  1
  C  61  1  0.13174800  0.12772150  0.54969100  1
  C  62  1  0.36546500  0.36703500  0.54870800  1
  C  67  1  0.20574600  0.88568100  0.18433800  1
  C  68  1  0.01451100  0.69268350  0.12277300  1
  C  87  1  0.29670500  0.90440450  0.19976700  1
  C  89  1  0.07606500  0.31563300  0.84122000  1
  C  91  1  0.11086200  0.26521850  0.78087200  1
  C  93  1  0.00327200  0.14617450  0.82403000  1
  C  95  1  0.94816400  0.04804850  0.83244000  1
  C  96  1  0.09391500  0.39696050  0.86487500  1
  C  97  1  0.16811900  0.29076650  0.74776700  1
  C  100  1  0.69866100  0.83202850  0.53011000  1
  C  102  1  0.74797800  0.94698800  0.47954600  1
  C  104  1  0.86559800  0.95929300  0.52697900  1
  C  106  1  0.96109700  0.99870800  0.54183600  1
  C  107  1  0.62507500  0.74310050  0.54464100  1
  C  108  1  0.71995700  0.97775350  0.44611900  1
  C  111  1  0.79630200  0.08338800  0.17922100  1
  C  113  1  0.92082300  0.16995850  0.13404800  1
  C  115  1  0.92389000  0.04557950  0.17104900  1
  C  117  1  0.95754000  0.97837000  0.17635200  1
  C  118  1  0.71217600  0.07259750  0.19726000  1
  C  119  1  0.95238900  0.23919750  0.10485300  1
  C  123  1  0.03598300  0.09000800  0.53508000  1
  C  125  1  0.04585700  0.51097050  0.99250000  1
  C  126  1  0.03589600  0.44065050  0.96330400  1
  C  127  1  0.06364400  0.46581700  0.92452000  1
  C  128  1  0.09806300  0.56509400  0.91368700  1
  C  129  1  0.10862000  0.63656500  0.94161800  1
  C  130  1  0.08338100  0.60956650  0.98003700  1
  C  133  1  0.03023700  0.48930750  0.03282200  1
  C  134  1  0.03150700  0.40692850  0.04930000  1
  C  135  1  0.03996800  0.39886800  0.08979700  1
  C  136  1  0.04886800  0.47580250  0.11466500  1
  C  137  1  0.03329600  0.55072200  0.09986800  1
  C  138  1  0.02005700  0.55382200  0.05960300  1
  C  148  1  0.49421700  0.50759000  0.64729100  1
  C  149  1  0.56823900  0.59774100  0.63158100  1
  C  150  1  0.57497000  0.61386450  0.59146100  1
  C  151  1  0.51938000  0.53619800  0.56515300  1
  C  152  1  0.43778400  0.44613400  0.57974100  1
  C  156  1  0.46974400  0.50139050  0.68722800  1
  C  157  1  0.53798800  0.56742000  0.71617900  1
  C  158  1  0.50850800  0.57229400  0.75406300  1
  C  159  1  0.40928500  0.51207300  0.76387800  1
  C  160  1  0.34294200  0.43870500  0.73728600  1
  C  161  1  0.37352400  0.43141500  0.69988800  1
  C  172  1  0.50552700  0.98378500  0.31064700  1
  C  173  1  0.43213500  0.99264900  0.28893200  1
  C  174  1  0.42768200  0.98779050  0.24831600  1
  C  175  1  0.50886700  0.99472900  0.22829000  1
  C  176  1  0.59389000  0.00750650  0.24901000  1
  C  177  1  0.58801200  0.99496700  0.28949300  1
  C  179  1  0.49167600  0.95745700  0.35054400  1
  C  180  1  0.39457100  0.90663400  0.36564700  1
  C  181  1  0.37579500  0.87094500  0.40338700  1
  C  182  1  0.45475200  0.88440350  0.42773500  1
  C  183  1  0.55219800  0.93446200  0.41419600  1
  C  184  1  0.57012500  0.97131550  0.37635800  1
  H  6  1  0.96307700  0.68662400  0.10254700  1
  H  7  1  0.10996900  0.07510750  0.17659100  1
  H  8  1  0.97425400  0.95559200  0.55892500  1
  H  18  1  0.95398500  0.64492800  0.88854100  1
  H  19  1  0.06144500  0.01900800  0.83084400  1
  H  25  1  0.30971500  0.01261400  0.60549800  1
  H  52  1  0.42193500  0.36329250  0.62823300  1
  H  53  1  0.61076000  0.61273550  0.71015100  1
  H  58  1  0.54451100  0.52268700  0.51347200  1
  H  65  1  0.90877400  0.90995150  0.18644800  1
  H  73  1  0.37374700  0.99143250  0.30236400  1
  H  75  1  0.15942600  0.23854200  0.72743100  1
  H  76  1  0.64279000  0.66857350  0.78575800  1
  H  77  1  0.37753400  0.38412600  0.51814700  1
  H  79  1  0.33362400  0.88720050  0.34830600  1
  H  88  1  0.32116900  0.85688500  0.19182800  1
  H  98  1  0.14253000  0.46474400  0.85465200  1
  H  99  1  0.87537800  0.01942650  0.83417200  1
  H  109  1  0.77095100  0.03192150  0.42936000  1
  H  110  1  0.56104100  0.70369400  0.52831500  1
  H  120  1  0.01937200  0.25498700  0.09037900  1
  H  121  1  0.68161300  0.11215650  0.18630200  1
  H  124  1  0.02253600  0.13379750  0.51852600  1
  H  131  1  0.00874800  0.36839550  0.97018700  1
  H  140  1  0.01008400  0.60966250  0.04993400  1
  H  141  1  0.05617500  0.56844000  0.86231000  1
  H  142  1  0.99549800  0.43596550  0.16430500  1
  H  143  1  0.09983200  0.66612000  0.99943600  1
  H  144  1  0.03500000  0.35502650  0.03215400  1
  H  154  1  0.60776700  0.65894100  0.64922200  1
  H  163  1  0.32105600  0.38008400  0.68107300  1
  H  165  1  0.39033300  0.47168500  0.81607100  1
  H  186  1  0.64177100  0.00766050  0.36785000  1
  H  187  1  0.50299900  0.93170400  0.18007900  1
  H  188  1  0.44276200  0.89969650  0.48141300  1
  H  189  1  0.64541000  0.99321750  0.30333000  1
  N  2  1  0.02976400  0.84328600  0.15091000  1
  N  4  1  0.17350500  0.95166550  0.18732100  1
  N  10  1  0.82488800  0.68678500  0.83107200  1
  N  12  1  0.84865700  0.84002900  0.81167300  1
  N  14  1  0.96456000  0.83403050  0.85384800  1
  N  21  1  0.32453600  0.20585450  0.57399700  1
  N  23  1  0.16375800  0.07021950  0.56674900  1
  N  71  1  0.15004200  0.79985550  0.16396000  1
  N  78  1  0.14286200  0.72551050  0.93285800  1
  N  80  1  0.28832600  0.82410550  0.41461500  1
  N  90  1  0.12334500  0.33640050  0.80718100  1
  N  92  1  0.04987900  0.16968500  0.78970100  1
  N  94  1  0.01584800  0.21902600  0.84972500  1
  N  101  1  0.67795700  0.86659500  0.49777100  1
  N  103  1  0.84257400  0.99169650  0.49407000  1
  N  105  1  0.79289600  0.87909850  0.54450200  1
  N  112  1  0.83575600  0.15063500  0.15104500  1
  N  114  1  0.96583000  0.11807900  0.14459500  1
  N  116  1  0.83906500  0.02866550  0.18807200  1
  N  122  1  0.19834200  0.22490000  0.54497900  1
  N  145  1  0.04159900  0.62284850  0.12459300  1
  N  146  1  0.03577500  0.31884200  0.10651000  1
  N  147  1  0.05703700  0.39239400  0.90042600  1
  N  168  1  0.25457500  0.37579000  0.75171900  1
  N  169  1  0.57104400  0.62838950  0.78324300  1
  N  170  1  0.34903800  0.43459700  0.56735300  1
  N  171  1  0.63340400  0.70729650  0.57903300  1
  N  190  1  0.62221400  0.93965000  0.43904500  1
  N  191  1  0.67933600  0.02794700  0.23146700  1
  N  192  1  0.33902800  0.96359850  0.23143700  1
  O  57  1  0.57367200  0.52316800  0.53892800  1
  O  132  1  0.11978800  0.59566150  0.87666700  1
  O  139  1  0.06202100  0.47199450  0.15357200  1
  O  162  1  0.38029900  0.51826600  0.80045900  1
  O  178  1  0.50433400  0.99270200  0.18887600  1
  O  185  1  0.43594400  0.84626050  0.46386200  1
