# generated using pymatgen
data_H20C41(NO)8
_symmetry_space_group_name_H-M   'P 1'
_cell_length_a   9.74993333
_cell_length_b   17.29080000
_cell_length_c   17.29080000
_cell_angle_alpha   89.99490000
_cell_angle_beta   90.00000000
_cell_angle_gamma   90.00000000
_symmetry_Int_Tables_number   1
_chemical_formula_structural   H20C41(NO)8
_chemical_formula_sum   'H20 C41 N8 O8'
_cell_volume   2914.95476224
_cell_formula_units_Z   1
loop_
 _symmetry_equiv_pos_site_id
 _symmetry_equiv_pos_as_xyz
  1  'x, y, z'
loop_
 _atom_site_type_symbol
 _atom_site_label
 _atom_site_symmetry_multiplicity
 _atom_site_fract_x
 _atom_site_fract_y
 _atom_site_fract_z
 _atom_site_occupancy
  C  1  1  0.24651300  0.04100900  0.02603700  1
  C  2  1  0.38254950  0.01524150  0.02665500  1
  C  3  1  0.38198300  0.93337900  0.02602900  1
  C  4  1  0.24558950  0.90817750  0.02456700  1
  C  5  1  0.21210300  0.82863250  0.02165200  1
  C  6  1  0.31657750  0.77142350  0.02027300  1
  C  7  1  0.45461700  0.79755250  0.02289900  1
  C  8  1  0.48709300  0.87729950  0.02571200  1
  C  9  1  0.48830950  0.07092500  0.02707800  1
  C  10  1  0.45685300  0.15084800  0.02685100  1
  C  11  1  0.31911800  0.17770600  0.02619900  1
  C  12  1  0.21408700  0.12072500  0.02589300  1
  C  13  1  0.05474850  0.97569900  0.95917100  1
  C  14  1  0.91873300  0.97555400  0.98499700  1
  C  15  1  0.91940900  0.97485300  0.06686000  1
  C  16  1  0.05584750  0.97421800  0.09199600  1
  C  17  1  0.81442000  0.97380250  0.12300200  1
  C  18  1  0.84705000  0.97125800  0.20273600  1
  C  19  1  0.98516200  0.96957350  0.22881300  1
  C  20  1  0.08949600  0.97152150  0.17153500  1
  C  21  1  0.08709350  0.97579900  0.87945500  1
  C  22  1  0.98198900  0.97556850  0.82251800  1
  C  23  1  0.84427050  0.97524800  0.84942800  1
  C  24  1  0.81288350  0.97519900  0.92936600  1
  C  37  1  0.15067550  0.97481450  0.02533900  1
  C  38  1  0.02123900  0.96184550  0.30706400  1
  C  39  1  0.01755700  0.97567950  0.74366900  1
  C  40  1  0.28351050  0.25655000  0.02582100  1
  C  41  1  0.28082050  0.69319450  0.01204900  1
  C  46  1  0.95176800  0.97656100  0.44216300  1
  C  47  1  0.07452000  0.97974150  0.48656400  1
  C  48  1  0.06751200  0.97847500  0.56869800  1
  C  49  1  0.94137400  0.97477050  0.60920200  1
  C  50  1  0.81928000  0.97226100  0.56475700  1
  C  52  1  0.82605000  0.97349150  0.48271700  1
  C  62  1  0.35972450  0.39102150  0.02673000  1
  C  63  1  0.48190900  0.43545550  0.02727400  1
  C  64  1  0.47507300  0.51749900  0.02834200  1
  C  65  1  0.34925200  0.55806950  0.02837200  1
  C  66  1  0.22636150  0.51366950  0.02863400  1
  C  68  1  0.23343650  0.43153650  0.02746500  1
  H  25  1  0.76477300  0.97494300  0.81079400  1
  H  26  1  0.71301950  0.97461750  0.94607400  1
  H  27  1  0.71430100  0.97367800  0.10678900  1
  H  28  1  0.76827550  0.96885800  0.24177100  1
  H  29  1  0.19077950  0.96994950  0.18711500  1
  H  30  1  0.18823500  0.97576150  0.86351600  1
  H  31  1  0.11087750  0.81299500  0.01955300  1
  H  32  1  0.53346900  0.75854000  0.02095500  1
  H  33  1  0.58719150  0.89358250  0.02638200  1
  H  34  1  0.11293750  0.13663600  0.02536500  1
  H  35  1  0.58818600  0.05427650  0.02736000  1
  H  36  1  0.53631700  0.18950300  0.02705500  1
  H  42  1  0.11667950  0.97670000  0.73048600  1
  H  43  1  0.11265100  0.93954900  0.31886200  1
  H  44  1  0.18437800  0.26971850  0.02495200  1
  H  45  1  0.19069700  0.68145000  0.98812600  1
  H  51  1  0.15723100  0.98126050  0.59906900  1
  H  53  1  0.73617300  0.97191050  0.45205300  1
  H  67  1  0.56500000  0.54815050  0.02893500  1
  H  69  1  0.14358650  0.40116700  0.02803100  1
  N  54  1  0.69161800  0.96881650  0.60372500  1
  N  55  1  0.20290200  0.98602900  0.44895500  1
  N  60  1  0.94214350  0.97926300  0.36435500  1
  N  61  1  0.93100000  0.97465200  0.68711000  1
  N  70  1  0.09761450  0.55125300  0.03195800  1
  N  71  1  0.60970000  0.39647250  0.02708300  1
  N  76  1  0.37006350  0.31311300  0.02664300  1
  N  77  1  0.35874650  0.63589100  0.03105100  1
  O  56  1  0.62693300  0.90830300  0.58670100  1
  O  57  1  0.26416050  0.04741100  0.46691300  1
  O  58  1  0.27947450  0.92964750  0.46461700  1
  O  59  1  0.61781900  0.02624350  0.58780900  1
  O  72  1  0.03193200  0.53323600  0.09185800  1
  O  73  1  0.67867500  0.41226900  0.08641400  1
  O  74  1  0.67933150  0.41358450  0.96836400  1
  O  75  1  0.02521900  0.53564000  0.97384000  1
