# generated using pymatgen
data_CaH3C7NO4
_symmetry_space_group_name_H-M   'P 1'
_cell_length_a   6.42750000
_cell_length_b   10.97640000
_cell_length_c   16.38700000
_cell_angle_alpha   90.00000000
_cell_angle_beta   90.00000000
_cell_angle_gamma   99.18200000
_symmetry_Int_Tables_number   1
_chemical_formula_structural   CaH3C7NO4
_chemical_formula_sum   'Ca4 H12 C28 N4 O16'
_cell_volume   1141.30218155
_cell_formula_units_Z   4
loop_
 _symmetry_equiv_pos_site_id
 _symmetry_equiv_pos_as_xyz
  1  'x, y, z'
loop_
 _atom_site_type_symbol
 _atom_site_label
 _atom_site_symmetry_multiplicity
 _atom_site_fract_x
 _atom_site_fract_y
 _atom_site_fract_z
 _atom_site_occupancy
  Ca  Ca1  1  0.78221000  0.58060000  0.95785000  1.0
  Ca  Ca2  1  0.71779000  0.91940000  0.45785000  1.0
  Ca  Ca3  1  0.21779000  0.41940000  0.04215000  1.0
  Ca  Ca4  1  0.28221000  0.08060000  0.54215000  1.0
  H  H1  1  0.22230000  0.75560000  0.76210000  1.0
  H  H2  1  0.80410000  0.86340000  0.67540000  1.0
  H  H3  1  0.92750000  0.76800000  0.78520000  1.0
  H  H4  1  0.27770000  0.74440000  0.26210000  1.0
  H  H5  1  0.69590000  0.63660000  0.17540000  1.0
  H  H6  1  0.57250000  0.73200000  0.28520000  1.0
  H  H7  1  0.77770000  0.24440000  0.23790000  1.0
  H  H8  1  0.19590000  0.13660000  0.32460000  1.0
  H  H9  1  0.07250000  0.23200000  0.21480000  1.0
  H  H10  1  0.72230000  0.25560000  0.73790000  1.0
  H  H11  1  0.30410000  0.36340000  0.82460000  1.0
  H  H12  1  0.42750000  0.26800000  0.71480000  1.0
  C  C1  1  0.45150000  0.70000000  0.82904000  1.0
  C  C2  1  0.39800000  0.88480000  0.63807000  1.0
  C  C3  1  0.36740000  0.75790000  0.76517000  1.0
  C  C4  1  0.71080000  0.82270000  0.71362000  1.0
  C  C5  1  0.49600000  0.81930000  0.70571000  1.0
  C  C6  1  0.31010000  0.63560000  0.89571000  1.0
  C  C7  1  0.78260000  0.76400000  0.77979000  1.0
  C  C8  1  0.04850000  0.80000000  0.32904000  1.0
  C  C9  1  0.10200000  0.61520000  0.13807000  1.0
  C  C10  1  0.13260000  0.74210000  0.26517000  1.0
  C  C11  1  0.78920000  0.67730000  0.21362000  1.0
  C  C12  1  0.00400000  0.68070000  0.20571000  1.0
  C  C13  1  0.18990000  0.86440000  0.39571000  1.0
  C  C14  1  0.71740000  0.73600000  0.27979000  1.0
  C  C15  1  0.54850000  0.30000000  0.17096000  1.0
  C  C16  1  0.60200000  0.11520000  0.36193000  1.0
  C  C17  1  0.63260000  0.24210000  0.23483000  1.0
  C  C18  1  0.28920000  0.17730000  0.28638000  1.0
  C  C19  1  0.50400000  0.18070000  0.29429000  1.0
  C  C20  1  0.68990000  0.36440000  0.10429000  1.0
  C  C21  1  0.21740000  0.23600000  0.22021000  1.0
  C  C22  1  0.95150000  0.20000000  0.67096000  1.0
  C  C23  1  0.89800000  0.38480000  0.86193000  1.0
  C  C24  1  0.86740000  0.25790000  0.73483000  1.0
  C  C25  1  0.21080000  0.32270000  0.78638000  1.0
  C  C26  1  0.99600000  0.31930000  0.79429000  1.0
  C  C27  1  0.81010000  0.13560000  0.60429000  1.0
  C  C28  1  0.28260000  0.26400000  0.72021000  1.0
  N  N1  1  0.65960000  0.70130000  0.83710000  1.0
  N  N2  1  0.84040000  0.79870000  0.33710000  1.0
  N  N3  1  0.34040000  0.29870000  0.16290000  1.0
  N  N4  1  0.15960000  0.20130000  0.66290000  1.0
  O  O1  1  0.39470000  0.57167000  0.94634000  1.0
  O  O2  1  0.49050000  0.89932000  0.57063000  1.0
  O  O3  1  0.23080000  0.92408000  0.65317000  1.0
  O  O4  1  0.12390000  0.65404000  0.89496000  1.0
  O  O5  1  0.10530000  0.92833000  0.44634000  1.0
  O  O6  1  0.00950000  0.60068000  0.07063000  1.0
  O  O7  1  0.26920000  0.57592000  0.15317000  1.0
  O  O8  1  0.37610000  0.84596000  0.39496000  1.0
  O  O9  1  0.60530000  0.42833000  0.05366000  1.0
  O  O10  1  0.50950000  0.10068000  0.42937000  1.0
  O  O11  1  0.76920000  0.07592000  0.34683000  1.0
  O  O12  1  0.87610000  0.34596000  0.10504000  1.0
  O  O13  1  0.89470000  0.07167000  0.55366000  1.0
  O  O14  1  0.99050000  0.39932000  0.92937000  1.0
  O  O15  1  0.73080000  0.42408000  0.84683000  1.0
  O  O16  1  0.62390000  0.15404000  0.60504000  1.0
