# generated using pymatgen
data_CaH2C6SO4
_symmetry_space_group_name_H-M   'P 1'
_cell_length_a   10.30140000
_cell_length_b   14.41760000
_cell_length_c   17.50700000
_cell_angle_alpha   90.00000000
_cell_angle_beta   94.80900000
_cell_angle_gamma   90.00000000
_symmetry_Int_Tables_number   1
_chemical_formula_structural   CaH2C6SO4
_chemical_formula_sum   'Ca8 H16 C48 S8 O32'
_cell_volume   2591.01192708
_cell_formula_units_Z   8
loop_
 _symmetry_equiv_pos_site_id
 _symmetry_equiv_pos_as_xyz
  1  'x, y, z'
loop_
 _atom_site_type_symbol
 _atom_site_label
 _atom_site_symmetry_multiplicity
 _atom_site_fract_x
 _atom_site_fract_y
 _atom_site_fract_z
 _atom_site_occupancy
  Ca  Ca1  1  0.38930000  0.15562000  0.02779000  1.0
  Ca  Ca2  1  0.53044000  0.39147000  0.05897000  1.0
  Ca  Ca3  1  0.11070000  0.65562000  0.47221000  1.0
  Ca  Ca4  1  0.96956000  0.89147000  0.44103000  1.0
  Ca  Ca5  1  0.61070000  0.84438000  0.97221000  1.0
  Ca  Ca6  1  0.46956000  0.60853000  0.94103000  1.0
  Ca  Ca7  1  0.88930000  0.34438000  0.52779000  1.0
  Ca  Ca8  1  0.03044000  0.10853000  0.55897000  1.0
  H  H1  1  0.26520000  0.49630000  0.80490000  1.0
  H  H2  1  0.13840000  0.43720000  0.69210000  1.0
  H  H3  1  0.32500000  0.69880000  0.25610000  1.0
  H  H4  1  0.41980000  0.75430000  0.14220000  1.0
  H  H5  1  0.23480000  0.99630000  0.69510000  1.0
  H  H6  1  0.36160000  0.93720000  0.80790000  1.0
  H  H7  1  0.17500000  0.19880000  0.24390000  1.0
  H  H8  1  0.08020000  0.25430000  0.35780000  1.0
  H  H9  1  0.73480000  0.50370000  0.19510000  1.0
  H  H10  1  0.86160000  0.56280000  0.30790000  1.0
  H  H11  1  0.67500000  0.30120000  0.74390000  1.0
  H  H12  1  0.58020000  0.24570000  0.85780000  1.0
  H  H13  1  0.76520000  0.00370000  0.30490000  1.0
  H  H14  1  0.63840000  0.06280000  0.19210000  1.0
  H  H15  1  0.82500000  0.80120000  0.75610000  1.0
  H  H16  1  0.91980000  0.74570000  0.64220000  1.0
  C  C1  1  0.37860000  0.88710000  0.16990000  1.0
  C  C2  1  0.30900000  0.36370000  0.83970000  1.0
  C  C3  1  0.18200000  0.30490000  0.72500000  1.0
  C  C4  1  0.25470000  0.43350000  0.79380000  1.0
  C  C5  1  0.18210000  0.39940000  0.72880000  1.0
  C  C6  1  0.38600000  0.37150000  0.91430000  1.0
  C  C7  1  0.12070000  0.24090000  0.66590000  1.0
  C  C8  1  0.42790000  0.94640000  0.10900000  1.0
  C  C9  1  0.28100000  0.83040000  0.28480000  1.0
  C  C10  1  0.32860000  0.76110000  0.24270000  1.0
  C  C11  1  0.38360000  0.79320000  0.17720000  1.0
  C  C12  1  0.21620000  0.82160000  0.35770000  1.0
  C  C13  1  0.12140000  0.38710000  0.33010000  1.0
  C  C14  1  0.19100000  0.86370000  0.66030000  1.0
  C  C15  1  0.31800000  0.80490000  0.77500000  1.0
  C  C16  1  0.24530000  0.93350000  0.70620000  1.0
  C  C17  1  0.31790000  0.89940000  0.77120000  1.0
  C  C18  1  0.11400000  0.87150000  0.58570000  1.0
  C  C19  1  0.37930000  0.74090000  0.83410000  1.0
  C  C20  1  0.07210000  0.44640000  0.39100000  1.0
  C  C21  1  0.21900000  0.33040000  0.21520000  1.0
  C  C22  1  0.17140000  0.26110000  0.25730000  1.0
  C  C23  1  0.11640000  0.29320000  0.32280000  1.0
  C  C24  1  0.28380000  0.32160000  0.14230000  1.0
  C  C25  1  0.62140000  0.11290000  0.83010000  1.0
  C  C26  1  0.69100000  0.63630000  0.16030000  1.0
  C  C27  1  0.81800000  0.69510000  0.27500000  1.0
  C  C28  1  0.74530000  0.56650000  0.20620000  1.0
  C  C29  1  0.81790000  0.60060000  0.27120000  1.0
  C  C30  1  0.61400000  0.62850000  0.08570000  1.0
  C  C31  1  0.87930000  0.75910000  0.33410000  1.0
  C  C32  1  0.57210000  0.05360000  0.89100000  1.0
  C  C33  1  0.71900000  0.16960000  0.71520000  1.0
  C  C34  1  0.67140000  0.23890000  0.75730000  1.0
  C  C35  1  0.61640000  0.20680000  0.82280000  1.0
  C  C36  1  0.78380000  0.17840000  0.64230000  1.0
  C  C37  1  0.87860000  0.61290000  0.66990000  1.0
  C  C38  1  0.80900000  0.13630000  0.33970000  1.0
  C  C39  1  0.68200000  0.19510000  0.22500000  1.0
  C  C40  1  0.75470000  0.06650000  0.29380000  1.0
  C  C41  1  0.68210000  0.10060000  0.22880000  1.0
  C  C42  1  0.88600000  0.12850000  0.41430000  1.0
  C  C43  1  0.62070000  0.25910000  0.16590000  1.0
  C  C44  1  0.92790000  0.55360000  0.60900000  1.0
  C  C45  1  0.78100000  0.66960000  0.78480000  1.0
  C  C46  1  0.82860000  0.73890000  0.74270000  1.0
  C  C47  1  0.88360000  0.70680000  0.67720000  1.0
  C  C48  1  0.71620000  0.67840000  0.85770000  1.0
  S  S1  1  0.27123000  0.25660000  0.80191000  1.0
  S  S2  1  0.30331000  0.93693000  0.24388000  1.0
  S  S3  1  0.22877000  0.75660000  0.69809000  1.0
  S  S4  1  0.19669000  0.43693000  0.25612000  1.0
  S  S5  1  0.72877000  0.74340000  0.19809000  1.0
  S  S6  1  0.69669000  0.06307000  0.75612000  1.0
  S  S7  1  0.77123000  0.24340000  0.30191000  1.0
  S  S8  1  0.80331000  0.56307000  0.74388000  1.0
  O  O1  1  0.39960000  0.03030000  0.10969000  1.0
  O  O2  1  0.40930000  0.30046000  0.95469000  1.0
  O  O3  1  0.13040000  0.15610000  0.67923000  1.0
  O  O4  1  0.42850000  0.45080000  0.93552000  1.0
  O  O5  1  0.06500000  0.27389000  0.60474000  1.0
  O  O6  1  0.22470000  0.74440000  0.39012000  1.0
  O  O7  1  0.16120000  0.89200000  0.38117000  1.0
  O  O8  1  0.49240000  0.90680000  0.06158000  1.0
  O  O9  1  0.10040000  0.53030000  0.39031000  1.0
  O  O10  1  0.09070000  0.80046000  0.54531000  1.0
  O  O11  1  0.36960000  0.65610000  0.82077000  1.0
  O  O12  1  0.07150000  0.95080000  0.56448000  1.0
  O  O13  1  0.43500000  0.77389000  0.89526000  1.0
  O  O14  1  0.27530000  0.24440000  0.10988000  1.0
  O  O15  1  0.33880000  0.39200000  0.11883000  1.0
  O  O16  1  0.00760000  0.40680000  0.43842000  1.0
  O  O17  1  0.60040000  0.96970000  0.89031000  1.0
  O  O18  1  0.59070000  0.69954000  0.04531000  1.0
  O  O19  1  0.86960000  0.84390000  0.32077000  1.0
  O  O20  1  0.57150000  0.54920000  0.06448000  1.0
  O  O21  1  0.93500000  0.72611000  0.39526000  1.0
  O  O22  1  0.77530000  0.25560000  0.60988000  1.0
  O  O23  1  0.83880000  0.10800000  0.61883000  1.0
  O  O24  1  0.50760000  0.09320000  0.93842000  1.0
  O  O25  1  0.89960000  0.46970000  0.60969000  1.0
  O  O26  1  0.90930000  0.19954000  0.45469000  1.0
  O  O27  1  0.63040000  0.34390000  0.17923000  1.0
  O  O28  1  0.92850000  0.04920000  0.43552000  1.0
  O  O29  1  0.56500000  0.22611000  0.10474000  1.0
  O  O30  1  0.72470000  0.75560000  0.89012000  1.0
  O  O31  1  0.66120000  0.60800000  0.88117000  1.0
  O  O32  1  0.99240000  0.59320000  0.56158000  1.0
