# generated using pymatgen
data_LaH15(C9O2)3
_symmetry_space_group_name_H-M   'P 1'
_cell_length_a   16.54280000
_cell_length_b   16.54280000
_cell_length_c   24.39880000
_cell_angle_alpha   90.00000000
_cell_angle_beta   90.00000000
_cell_angle_gamma   120.00000000
_symmetry_Int_Tables_number   1
_chemical_formula_structural   LaH15(C9O2)3
_chemical_formula_sum   'La6 H90 C162 O36'
_cell_volume   5782.51991567
_cell_formula_units_Z   6
loop_
 _symmetry_equiv_pos_site_id
 _symmetry_equiv_pos_as_xyz
  1  'x, y, z'
loop_
 _atom_site_type_symbol
 _atom_site_label
 _atom_site_symmetry_multiplicity
 _atom_site_fract_x
 _atom_site_fract_y
 _atom_site_fract_z
 _atom_site_occupancy
  La  La1  1  0.91902000  0.00000000  0.00000000  1.0
  La  La2  1  1.00000000  0.91902000  0.66666667  1.0
  La  La3  1  0.08098000  0.08098000  0.33333333  1.0
  La  La4  1  0.08098000  0.00000000  0.50000000  1.0
  La  La5  1  1.00000000  0.08098000  0.16667000  1.0
  La  La6  1  0.91902000  0.91902000  0.83333000  1.0
  H  H1  1  0.01690000  0.33900000  0.99810000  1.0
  H  H2  1  0.11270000  0.50010000  0.00770000  1.0
  H  H3  1  0.28030000  0.45550000  0.10750000  1.0
  H  H4  1  0.18910000  0.29540000  0.09350000  1.0
  H  H5  1  0.15020000  0.62130000  0.06120000  1.0
  H  H6  1  0.12520000  0.73180000  0.01660000  1.0
  H  H7  1  0.04150000  0.80980000  0.01800000  1.0
  H  H8  1  0.66100000  0.67790000  0.66477000  1.0
  H  H9  1  0.49990000  0.61260000  0.67437000  1.0
  H  H10  1  0.54450000  0.82480000  0.77417000  1.0
  H  H11  1  0.70460000  0.89370000  0.76017000  1.0
  H  H12  1  0.37870000  0.52890000  0.72787000  1.0
  H  H13  1  0.26820000  0.39340000  0.68327000  1.0
  H  H14  1  0.19020000  0.23170000  0.68467000  1.0
  H  H15  1  0.32210000  0.98310000  0.33143000  1.0
  H  H16  1  0.38740000  0.88730000  0.34103000  1.0
  H  H17  1  0.17520000  0.71970000  0.44083000  1.0
  H  H18  1  0.10630000  0.81090000  0.42683000  1.0
  H  H19  1  0.47110000  0.84980000  0.39453000  1.0
  H  H20  1  0.60660000  0.87480000  0.34993000  1.0
  H  H21  1  0.76830000  0.95850000  0.35133000  1.0
  H  H22  1  0.98310000  0.66100000  0.49810000  1.0
  H  H23  1  0.88730000  0.49990000  0.50770000  1.0
  H  H24  1  0.71970000  0.54450000  0.60750000  1.0
  H  H25  1  0.81090000  0.70460000  0.59350000  1.0
  H  H26  1  0.84980000  0.37870000  0.56120000  1.0
  H  H27  1  0.87480000  0.26820000  0.51660000  1.0
  H  H28  1  0.95850000  0.19020000  0.51800000  1.0
  H  H29  1  0.33900000  0.32210000  0.16477000  1.0
  H  H30  1  0.50010000  0.38740000  0.17437000  1.0
  H  H31  1  0.45550000  0.17520000  0.27417000  1.0
  H  H32  1  0.29540000  0.10630000  0.26017000  1.0
  H  H33  1  0.62130000  0.47110000  0.22787000  1.0
  H  H34  1  0.73180000  0.60660000  0.18327000  1.0
  H  H35  1  0.80980000  0.76830000  0.18467000  1.0
  H  H36  1  0.67790000  0.01690000  0.83143000  1.0
  H  H37  1  0.61260000  0.11270000  0.84103000  1.0
  H  H38  1  0.82480000  0.28030000  0.94083000  1.0
  H  H39  1  0.89370000  0.18910000  0.92683000  1.0
  H  H40  1  0.52890000  0.15020000  0.89453000  1.0
  H  H41  1  0.39340000  0.12520000  0.84993000  1.0
  H  H42  1  0.23170000  0.04150000  0.85133000  1.0
  H  H43  1  0.33900000  0.01690000  0.66857000  1.0
  H  H44  1  0.50010000  0.11270000  0.65897000  1.0
  H  H45  1  0.45550000  0.28030000  0.55917000  1.0
  H  H46  1  0.29540000  0.18910000  0.57317000  1.0
  H  H47  1  0.62130000  0.15020000  0.60547000  1.0
  H  H48  1  0.73180000  0.12520000  0.65007000  1.0
  H  H49  1  0.80980000  0.04150000  0.64867000  1.0
  H  H50  1  0.67790000  0.66100000  0.00190000  1.0
  H  H51  1  0.61260000  0.49990000  0.99230000  1.0
  H  H52  1  0.82480000  0.54450000  0.89250000  1.0
  H  H53  1  0.89370000  0.70460000  0.90650000  1.0
  H  H54  1  0.52890000  0.37870000  0.93880000  1.0
  H  H55  1  0.39340000  0.26820000  0.98340000  1.0
  H  H56  1  0.23170000  0.19020000  0.98200000  1.0
  H  H57  1  0.98310000  0.32210000  0.33523000  1.0
  H  H58  1  0.88730000  0.38740000  0.32563000  1.0
  H  H59  1  0.71970000  0.17520000  0.22583000  1.0
  H  H60  1  0.81090000  0.10630000  0.23983000  1.0
  H  H61  1  0.84980000  0.47110000  0.27213000  1.0
  H  H62  1  0.87480000  0.60660000  0.31673000  1.0
  H  H63  1  0.95850000  0.76830000  0.31533000  1.0
  H  H64  1  0.66100000  0.98310000  0.16857000  1.0
  H  H65  1  0.49990000  0.88730000  0.15897000  1.0
  H  H66  1  0.54450000  0.71970000  0.05917000  1.0
  H  H67  1  0.70460000  0.81090000  0.07317000  1.0
  H  H68  1  0.37870000  0.84980000  0.10547000  1.0
  H  H69  1  0.26820000  0.87480000  0.15007000  1.0
  H  H70  1  0.19020000  0.95850000  0.14867000  1.0
  H  H71  1  0.32210000  0.33900000  0.50190000  1.0
  H  H72  1  0.38740000  0.50010000  0.49230000  1.0
  H  H73  1  0.17520000  0.45550000  0.39250000  1.0
  H  H74  1  0.10630000  0.29540000  0.40650000  1.0
  H  H75  1  0.47110000  0.62130000  0.43880000  1.0
  H  H76  1  0.60660000  0.73180000  0.48340000  1.0
  H  H77  1  0.76830000  0.80980000  0.48200000  1.0
  H  H78  1  0.01690000  0.67790000  0.83523000  1.0
  H  H79  1  0.11270000  0.61260000  0.82563000  1.0
  H  H80  1  0.28030000  0.82480000  0.72583000  1.0
  H  H81  1  0.18910000  0.89370000  0.73983000  1.0
  H  H82  1  0.15020000  0.52890000  0.77213000  1.0
  H  H83  1  0.12520000  0.39340000  0.81673000  1.0
  H  H84  1  0.04150000  0.23170000  0.81533000  1.0
  H  H85  1  0.38620000  0.61380000  0.08333000  1.0
  H  H86  1  0.38620000  0.77240000  0.75000000  1.0
  H  H87  1  0.22760000  0.61380000  0.41667000  1.0
  H  H88  1  0.61380000  0.38620000  0.58333000  1.0
  H  H89  1  0.61380000  0.22760000  0.25000000  1.0
  H  H90  1  0.77240000  0.38620000  0.91667000  1.0
  C  C1  1  0.02600000  0.19940000  0.03910000  1.0
  C  C2  1  0.09270000  0.30200000  0.04480000  1.0
  C  C3  1  0.07020000  0.36250000  0.01970000  1.0
  C  C4  1  0.12730000  0.45990000  0.02620000  1.0
  C  C5  1  0.20550000  0.49660000  0.06040000  1.0
  C  C6  1  0.22770000  0.43260000  0.08530000  1.0
  C  C7  1  0.17270000  0.33610000  0.07730000  1.0
  C  C8  1  0.25950000  0.59800000  0.07240000  1.0
  C  C9  1  0.21290000  0.65080000  0.07100000  1.0
  C  C10  1  0.13720000  0.77620000  0.04350000  1.0
  C  C11  1  0.08780000  0.82380000  0.04400000  1.0
  C  C12  1  0.80060000  0.82660000  0.70577000  1.0
  C  C13  1  0.69800000  0.79070000  0.71147000  1.0
  C  C14  1  0.63750000  0.70770000  0.68637000  1.0
  C  C15  1  0.54010000  0.66740000  0.69287000  1.0
  C  C16  1  0.50340000  0.70890000  0.72707000  1.0
  C  C17  1  0.56740000  0.79510000  0.75197000  1.0
  C  C18  1  0.66390000  0.83660000  0.74397000  1.0
  C  C19  1  0.40200000  0.66150000  0.73907000  1.0
  C  C20  1  0.34920000  0.56210000  0.73767000  1.0
  C  C21  1  0.22380000  0.36100000  0.71017000  1.0
  C  C22  1  0.17620000  0.26400000  0.71067000  1.0
  C  C23  1  0.17340000  0.97400000  0.37243000  1.0
  C  C24  1  0.20930000  0.90730000  0.37813000  1.0
  C  C25  1  0.29230000  0.92980000  0.35303000  1.0
  C  C26  1  0.33260000  0.87270000  0.35953000  1.0
  C  C27  1  0.29110000  0.79450000  0.39373000  1.0
  C  C28  1  0.20490000  0.77230000  0.41863000  1.0
  C  C29  1  0.16340000  0.82730000  0.41063000  1.0
  C  C30  1  0.33850000  0.74050000  0.40573000  1.0
  C  C31  1  0.43790000  0.78710000  0.40433000  1.0
  C  C32  1  0.63900000  0.86280000  0.37683000  1.0
  C  C33  1  0.73600000  0.91220000  0.37733000  1.0
  C  C34  1  0.97400000  0.80060000  0.53910000  1.0
  C  C35  1  0.90730000  0.69800000  0.54480000  1.0
  C  C36  1  0.92980000  0.63750000  0.51970000  1.0
  C  C37  1  0.87270000  0.54010000  0.52620000  1.0
  C  C38  1  0.79450000  0.50340000  0.56040000  1.0
  C  C39  1  0.77230000  0.56740000  0.58530000  1.0
  C  C40  1  0.82730000  0.66390000  0.57730000  1.0
  C  C41  1  0.74050000  0.40200000  0.57240000  1.0
  C  C42  1  0.78710000  0.34920000  0.57100000  1.0
  C  C43  1  0.86280000  0.22380000  0.54350000  1.0
  C  C44  1  0.91220000  0.17620000  0.54400000  1.0
  C  C45  1  0.19940000  0.17340000  0.20577000  1.0
  C  C46  1  0.30200000  0.20930000  0.21147000  1.0
  C  C47  1  0.36250000  0.29230000  0.18637000  1.0
  C  C48  1  0.45990000  0.33260000  0.19287000  1.0
  C  C49  1  0.49660000  0.29110000  0.22707000  1.0
  C  C50  1  0.43260000  0.20490000  0.25197000  1.0
  C  C51  1  0.33610000  0.16340000  0.24397000  1.0
  C  C52  1  0.59800000  0.33850000  0.23907000  1.0
  C  C53  1  0.65080000  0.43790000  0.23767000  1.0
  C  C54  1  0.77620000  0.63900000  0.21017000  1.0
  C  C55  1  0.82380000  0.73600000  0.21067000  1.0
  C  C56  1  0.82660000  0.02600000  0.87243000  1.0
  C  C57  1  0.79070000  0.09270000  0.87813000  1.0
  C  C58  1  0.70770000  0.07020000  0.85303000  1.0
  C  C59  1  0.66740000  0.12730000  0.85953000  1.0
  C  C60  1  0.70890000  0.20550000  0.89373000  1.0
  C  C61  1  0.79510000  0.22770000  0.91863000  1.0
  C  C62  1  0.83660000  0.17270000  0.91063000  1.0
  C  C63  1  0.66150000  0.25950000  0.90573000  1.0
  C  C64  1  0.56210000  0.21290000  0.90433000  1.0
  C  C65  1  0.36100000  0.13720000  0.87683000  1.0
  C  C66  1  0.26400000  0.08780000  0.87733000  1.0
  C  C67  1  0.19940000  0.02600000  0.62757000  1.0
  C  C68  1  0.30200000  0.09270000  0.62187000  1.0
  C  C69  1  0.36250000  0.07020000  0.64697000  1.0
  C  C70  1  0.45990000  0.12730000  0.64047000  1.0
  C  C71  1  0.49660000  0.20550000  0.60627000  1.0
  C  C72  1  0.43260000  0.22770000  0.58137000  1.0
  C  C73  1  0.33610000  0.17270000  0.58937000  1.0
  C  C74  1  0.59800000  0.25950000  0.59427000  1.0
  C  C75  1  0.65080000  0.21290000  0.59567000  1.0
  C  C76  1  0.77620000  0.13720000  0.62317000  1.0
  C  C77  1  0.82380000  0.08780000  0.62267000  1.0
  C  C78  1  0.82660000  0.80060000  0.96090000  1.0
  C  C79  1  0.79070000  0.69800000  0.95520000  1.0
  C  C80  1  0.70770000  0.63750000  0.98030000  1.0
  C  C81  1  0.66740000  0.54010000  0.97380000  1.0
  C  C82  1  0.70890000  0.50340000  0.93960000  1.0
  C  C83  1  0.79510000  0.56740000  0.91470000  1.0
  C  C84  1  0.83660000  0.66390000  0.92270000  1.0
  C  C85  1  0.66150000  0.40200000  0.92760000  1.0
  C  C86  1  0.56210000  0.34920000  0.92900000  1.0
  C  C87  1  0.36100000  0.22380000  0.95650000  1.0
  C  C88  1  0.26400000  0.17620000  0.95600000  1.0
  C  C89  1  0.97400000  0.17340000  0.29423000  1.0
  C  C90  1  0.90730000  0.20930000  0.28853000  1.0
  C  C91  1  0.92980000  0.29230000  0.31363000  1.0
  C  C92  1  0.87270000  0.33260000  0.30713000  1.0
  C  C93  1  0.79450000  0.29110000  0.27293000  1.0
  C  C94  1  0.77230000  0.20490000  0.24803000  1.0
  C  C95  1  0.82730000  0.16340000  0.25603000  1.0
  C  C96  1  0.74050000  0.33850000  0.26093000  1.0
  C  C97  1  0.78710000  0.43790000  0.26233000  1.0
  C  C98  1  0.86280000  0.63900000  0.28983000  1.0
  C  C99  1  0.91220000  0.73600000  0.28933000  1.0
  C  C100  1  0.80060000  0.97400000  0.12757000  1.0
  C  C101  1  0.69800000  0.90730000  0.12187000  1.0
  C  C102  1  0.63750000  0.92980000  0.14697000  1.0
  C  C103  1  0.54010000  0.87270000  0.14047000  1.0
  C  C104  1  0.50340000  0.79450000  0.10627000  1.0
  C  C105  1  0.56740000  0.77230000  0.08137000  1.0
  C  C106  1  0.66390000  0.82730000  0.08937000  1.0
  C  C107  1  0.40200000  0.74050000  0.09427000  1.0
  C  C108  1  0.34920000  0.78710000  0.09567000  1.0
  C  C109  1  0.22380000  0.86280000  0.12317000  1.0
  C  C110  1  0.17620000  0.91220000  0.12267000  1.0
  C  C111  1  0.17340000  0.19940000  0.46090000  1.0
  C  C112  1  0.20930000  0.30200000  0.45520000  1.0
  C  C113  1  0.29230000  0.36250000  0.48030000  1.0
  C  C114  1  0.33260000  0.45990000  0.47380000  1.0
  C  C115  1  0.29110000  0.49660000  0.43960000  1.0
  C  C116  1  0.20490000  0.43260000  0.41470000  1.0
  C  C117  1  0.16340000  0.33610000  0.42270000  1.0
  C  C118  1  0.33850000  0.59800000  0.42760000  1.0
  C  C119  1  0.43790000  0.65080000  0.42900000  1.0
  C  C120  1  0.63900000  0.77620000  0.45650000  1.0
  C  C121  1  0.73600000  0.82380000  0.45600000  1.0
  C  C122  1  0.02600000  0.82660000  0.79423000  1.0
  C  C123  1  0.09270000  0.79070000  0.78853000  1.0
  C  C124  1  0.07020000  0.70770000  0.81363000  1.0
  C  C125  1  0.12730000  0.66740000  0.80713000  1.0
  C  C126  1  0.20550000  0.70890000  0.77293000  1.0
  C  C127  1  0.22770000  0.79510000  0.74803000  1.0
  C  C128  1  0.17270000  0.83660000  0.75603000  1.0
  C  C129  1  0.25950000  0.66150000  0.76093000  1.0
  C  C130  1  0.21290000  0.56210000  0.76233000  1.0
  C  C131  1  0.13720000  0.36100000  0.78983000  1.0
  C  C132  1  0.08780000  0.26400000  0.78933000  1.0
  C  C133  1  0.35380000  0.64620000  0.08333000  1.0
  C  C134  1  0.25770000  0.74230000  0.08333000  1.0
  C  C135  1  0.20470000  0.79530000  0.08333000  1.0
  C  C136  1  0.10730000  0.89270000  0.08333000  1.0
  C  C137  1  0.05510000  0.94490000  0.08333000  1.0
  C  C138  1  0.35380000  0.70760000  0.75000000  1.0
  C  C139  1  0.25770000  0.51540000  0.75000000  1.0
  C  C140  1  0.20470000  0.40940000  0.75000000  1.0
  C  C141  1  0.10730000  0.21460000  0.75000000  1.0
  C  C142  1  0.05510000  0.11020000  0.75000000  1.0
  C  C143  1  0.29240000  0.64620000  0.41667000  1.0
  C  C144  1  0.48460000  0.74230000  0.41667000  1.0
  C  C145  1  0.59060000  0.79530000  0.41667000  1.0
  C  C146  1  0.78540000  0.89270000  0.41667000  1.0
  C  C147  1  0.88980000  0.94490000  0.41667000  1.0
  C  C148  1  0.64620000  0.35380000  0.58333000  1.0
  C  C149  1  0.74230000  0.25770000  0.58333000  1.0
  C  C150  1  0.79530000  0.20470000  0.58333000  1.0
  C  C151  1  0.89270000  0.10730000  0.58333000  1.0
  C  C152  1  0.94490000  0.05510000  0.58333000  1.0
  C  C153  1  0.64620000  0.29240000  0.25000000  1.0
  C  C154  1  0.74230000  0.48460000  0.25000000  1.0
  C  C155  1  0.79530000  0.59060000  0.25000000  1.0
  C  C156  1  0.89270000  0.78540000  0.25000000  1.0
  C  C157  1  0.94490000  0.88980000  0.25000000  1.0
  C  C158  1  0.70760000  0.35380000  0.91667000  1.0
  C  C159  1  0.51540000  0.25770000  0.91667000  1.0
  C  C160  1  0.40940000  0.20470000  0.91667000  1.0
  C  C161  1  0.21460000  0.10730000  0.91667000  1.0
  C  C162  1  0.11020000  0.05510000  0.91667000  1.0
  O  O1  1  0.03590000  0.14180000  0.06980000  1.0
  O  O2  1  0.96300000  0.17150000  0.00440000  1.0
  O  O3  1  0.99840000  0.92820000  0.04490000  1.0
  O  O4  1  0.85820000  0.89410000  0.73647000  1.0
  O  O5  1  0.82850000  0.79150000  0.67107000  1.0
  O  O6  1  0.07180000  0.07020000  0.71157000  1.0
  O  O7  1  0.10590000  0.96410000  0.40313000  1.0
  O  O8  1  0.20850000  0.03700000  0.33773000  1.0
  O  O9  1  0.92980000  0.00160000  0.37823000  1.0
  O  O10  1  0.96410000  0.85820000  0.56980000  1.0
  O  O11  1  0.03700000  0.82850000  0.50440000  1.0
  O  O12  1  0.00160000  0.07180000  0.54490000  1.0
  O  O13  1  0.14180000  0.10590000  0.23647000  1.0
  O  O14  1  0.17150000  0.20850000  0.17107000  1.0
  O  O15  1  0.92820000  0.92980000  0.21157000  1.0
  O  O16  1  0.89410000  0.03590000  0.90313000  1.0
  O  O17  1  0.79150000  0.96300000  0.83773000  1.0
  O  O18  1  0.07020000  0.99840000  0.87823000  1.0
  O  O19  1  0.14180000  0.03590000  0.59687000  1.0
  O  O20  1  0.17150000  0.96300000  0.66227000  1.0
  O  O21  1  0.92820000  0.99840000  0.62177000  1.0
  O  O22  1  0.89410000  0.85820000  0.93020000  1.0
  O  O23  1  0.79150000  0.82850000  0.99560000  1.0
  O  O24  1  0.07020000  0.07180000  0.95510000  1.0
  O  O25  1  0.96410000  0.10590000  0.26353000  1.0
  O  O26  1  0.03700000  0.20850000  0.32893000  1.0
  O  O27  1  0.00160000  0.92980000  0.28843000  1.0
  O  O28  1  0.85820000  0.96410000  0.09687000  1.0
  O  O29  1  0.82850000  0.03700000  0.16227000  1.0
  O  O30  1  0.07180000  0.00160000  0.12177000  1.0
  O  O31  1  0.10590000  0.14180000  0.43020000  1.0
  O  O32  1  0.20850000  0.17150000  0.49560000  1.0
  O  O33  1  0.92980000  0.92820000  0.45510000  1.0
  O  O34  1  0.03590000  0.89410000  0.76353000  1.0
  O  O35  1  0.96300000  0.79150000  0.82893000  1.0
  O  O36  1  0.99840000  0.07020000  0.78843000  1.0
