# generated using pymatgen
data_Ni2H22C36N4O9
_symmetry_space_group_name_H-M   'P 1'
_cell_length_a   7.84806000
_cell_length_b   11.16051000
_cell_length_c   12.97685347
_cell_angle_alpha   76.01342496
_cell_angle_beta   72.81869467
_cell_angle_gamma   89.93993000
_symmetry_Int_Tables_number   1
_chemical_formula_structural   Ni2H22C36N4O9
_chemical_formula_sum   'Ni2 H22 C36 N4 O9'
_cell_volume   1050.66682351
_cell_formula_units_Z   1
loop_
 _symmetry_equiv_pos_site_id
 _symmetry_equiv_pos_as_xyz
  1  'x, y, z'
loop_
 _atom_site_type_symbol
 _atom_site_label
 _atom_site_symmetry_multiplicity
 _atom_site_fract_x
 _atom_site_fract_y
 _atom_site_fract_z
 _atom_site_occupancy
  Ni  Ni0  1  0.48029000  0.56044000  0.38170000  1
  Ni  Ni1  1  0.86225000  0.43986000  0.61817000  1
  H  H2  1  0.97530000  0.29469000  0.35495000  1
  H  H3  1  0.06887000  0.19321000  0.19702000  1
  H  H4  1  0.32457000  0.29510000  0.02693000  1
  H  H5  1  0.67563000  0.42520000  0.21935000  1
  H  H6  1  0.68247000  0.20765000  0.20097000  1
  H  H7  1  0.33768000  0.09665000  0.54240000  1
  H  H8  1  0.34684000  0.31957000  0.54489000  1
  H  H9  1  0.24684000  0.72745000  0.48425000  1
  H  H10  1  0.23549000  0.95250000  0.47958000  1
  H  H11  1  0.77219000  0.00848000  0.24999000  1
  H  H12  1  0.75262000  0.78302000  0.25708000  1
  H  H13  1  0.33288000  0.70590000  0.64243000  1
  H  H14  1  0.26646000  0.80496000  0.80221000  1
  H  H15  1  0.34907000  0.70003000  0.97401000  1
  H  H16  1  0.89666000  0.57491000  0.78142000  1
  H  H17  1  0.88416000  0.79267000  0.79948000  1
  H  H18  1  0.88130000  0.90358000  0.45644000  1
  H  H19  1  0.89364000  0.68058000  0.45421000  1
  H  H20  1  0.73181000  0.27344000  0.51346000  1
  H  H21  1  0.71628000  0.04826000  0.51830000  1
  H  H22  1  0.02438000  0.99157000  0.75035000  1
  H  H23  1  0.01098000  0.21710000  0.74322000  1
  C  C24  1  0.36787000  0.44511000  0.09489000  1
  C  C25  1  0.32196000  0.50215000  0.18383000  1
  C  C26  1  0.17685000  0.44503000  0.27818000  1
  C  C27  1  0.08597000  0.33527000  0.28112000  1
  C  C28  1  0.13779000  0.27961000  0.19280000  1
  C  C29  1  0.27938000  0.33503000  0.09842000  1
  C  C30  1  0.42528000  0.62290000  0.17199000  1
  C  C31  1  0.11342000  0.49515000  0.37866000  1
  C  C32  1  0.60539000  0.34838000  0.28866000  1
  C  C33  1  0.60796000  0.22651000  0.27987000  1
  C  C34  1  0.50959000  0.13175000  0.37085000  1
  C  C35  1  0.41343000  0.16592000  0.46813000  1
  C  C36  1  0.41770000  0.28943000  0.47095000  1
  C  C37  1  0.35953000  0.79387000  0.43455000  1
  C  C38  1  0.35584000  0.91899000  0.43181000  1
  C  C39  1  0.50646000  0.00023000  0.36747000  1
  C  C40  1  0.65215000  0.95033000  0.30302000  1
  C  C41  1  0.64422000  0.82417000  0.30804000  1
  C  C42  1  0.46429000  0.55211000  0.90485000  1
  C  C43  1  0.50970000  0.49701000  0.81471000  1
  C  C44  1  0.45870000  0.55512000  0.71984000  1
  C  C45  1  0.37012000  0.66475000  0.71670000  1
  C  C46  1  0.33203000  0.71878000  0.80606000  1
  C  C47  1  0.37770000  0.66166000  0.90148000  1
  C  C48  1  0.60217000  0.37655000  0.82626000  1
  C  C49  1  0.49366000  0.50607000  0.61909000  1
  C  C50  1  0.89553000  0.65176000  0.71171000  1
  C  C51  1  0.88901000  0.77372000  0.72029000  1
  C  C52  1  0.88167000  0.86852000  0.62871000  1
  C  C53  1  0.88304000  0.83430000  0.53107000  1
  C  C54  1  0.89031000  0.71072000  0.52845000  1
  C  C55  1  0.79494000  0.20680000  0.56383000  1
  C  C56  1  0.78900000  0.08169000  0.56654000  1
  C  C57  1  0.87536000  0.00015000  0.63178000  1
  C  C58  1  0.95703000  0.04986000  0.69674000  1
  C  C59  1  0.95356000  0.17600000  0.69178000  1
  N  N60  1  0.51143000  0.37986000  0.38248000  1
  N  N61  1  0.50253000  0.74623000  0.37559000  1
  N  N62  1  0.89546000  0.62027000  0.61753000  1
  N  N63  1  0.87851000  0.25408000  0.62380000  1
  O  O64  1  0.56033000  0.61238000  0.21245000  1
  O  O65  1  0.38019000  0.72116000  0.12237000  1
  O  O66  1  0.21724000  0.56374000  0.40418000  1
  O  O67  1  0.95128000  0.46666000  0.43906000  1
  O  O68  1  0.77698000  0.38768000  0.78739000  1
  O  O69  1  0.50920000  0.27792000  0.87381000  1
  O  O70  1  0.62557000  0.44069000  0.59084000  1
  O  O71  1  0.38770000  0.53296000  0.56036000  1
  O  O72  1  0.51330000  0.49738000  0.00044000  1
