# generated using pymatgen
data_H48C55N8
_symmetry_space_group_name_H-M   'P 1'
_cell_length_a   46.32827140
_cell_length_b   46.32848703
_cell_length_c   46.32864874
_cell_angle_alpha   109.47170878
_cell_angle_beta   109.47121729
_cell_angle_gamma   109.47092440
_symmetry_Int_Tables_number   1
_chemical_formula_structural   H48C55N8
_chemical_formula_sum   'H288 C330 N48'
_cell_volume   76545.72584506
_cell_formula_units_Z   6
loop_
 _symmetry_equiv_pos_site_id
 _symmetry_equiv_pos_as_xyz
  1  'x, y, z'
loop_
 _atom_site_type_symbol
 _atom_site_label
 _atom_site_symmetry_multiplicity
 _atom_site_fract_x
 _atom_site_fract_y
 _atom_site_fract_z
 _atom_site_occupancy
  C  1  1  0.25919750  0.73518800  0.42898750  1
  C  2  1  0.23302600  0.70799300  0.42864500  1
  C  3  1  0.28029050  0.71010350  0.47801700  1
  C  4  1  0.30714200  0.73593900  0.47767900  1
  C  5  1  0.34295300  0.74963600  0.50261300  1
  C  6  1  0.35242500  0.73952300  0.52839200  1
  C  7  1  0.32514150  0.71396200  0.52819150  1
  C  8  1  0.28963600  0.69900150  0.50296550  1
  C  9  1  0.19697650  0.69238250  0.40368900  1
  C  10  1  0.18670800  0.70266800  0.37846900  1
  C  11  1  0.21206850  0.72975600  0.37827350  1
  C  12  1  0.24796050  0.74606450  0.40405500  1
  C  13  1  0.31312650  0.78968400  0.47711850  1
  C  14  1  0.34049400  0.81585000  0.47763400  1
  C  15  1  0.33915350  0.76858350  0.42902800  1
  C  16  1  0.31350300  0.74173300  0.42954600  1
  C  17  1  0.35051950  0.75923300  0.40432450  1
  C  18  1  0.33619900  0.72368450  0.37967950  1
  C  19  1  0.31113650  0.69638400  0.37991850  1
  C  20  1  0.30051350  0.70589900  0.40525650  1
  C  21  1  0.30156600  0.80098150  0.50139350  1
  C  22  1  0.31740700  0.83694250  0.52674950  1
  C  23  1  0.34495400  0.86224150  0.52699350  1
  C  24  1  0.35584700  0.85191900  0.50233800  1
  C  37  1  0.29824000  0.75063400  0.45333200  1
  C  38  1  0.35428800  0.80668100  0.45333200  1
  C  41  1  0.24219800  0.69458200  0.45332600  1
  C  44  1  0.20158150  0.73863250  0.34968200  1
  C  47  1  0.38989350  0.75762350  0.55697900  1
  C  50  1  0.29444000  0.65870750  0.35245450  1
  C  53  1  0.30720550  0.84770700  0.55422150  1
  C  56  1  0.83600200  0.26405550  0.47692150  1
  C  57  1  0.86217650  0.28989050  0.47590500  1
  C  58  1  0.81491300  0.29199550  0.43074550  1
  C  59  1  0.78805950  0.26479950  0.42972500  1
  C  60  1  0.75224900  0.25391900  0.40760700  1
  C  61  1  0.74277850  0.27023800  0.38803450  1
  C  62  1  0.77006150  0.29731650  0.38975200  1
  C  63  1  0.80556650  0.30759600  0.41029850  1
  C  64  1  0.89822350  0.30098150  0.49634100  1
  C  65  1  0.90849250  0.28603000  0.51689350  1
  C  66  1  0.88313250  0.26047850  0.51862600  1
  C  67  1  0.84724000  0.25036350  0.49903950  1
  C  68  1  0.78207350  0.25825850  0.47748600  1
  C  69  1  0.75470450  0.23140800  0.47628650  1
  C  70  1  0.75604950  0.18414300  0.43036550  1
  C  71  1  0.78170050  0.21030900  0.42916350  1
  C  72  1  0.74468950  0.14807200  0.40965450  1
  C  73  1  0.75901500  0.13774950  0.38843150  1
  C  74  1  0.78406750  0.16304850  0.38618300  1
  C  75  1  0.79468100  0.19900950  0.40630950  1
  C  76  1  0.79361600  0.29409300  0.50032800  1
  C  77  1  0.77779400  0.30360900  0.52046800  1
  C  78  1  0.75025650  0.27630800  0.51822950  1
  C  79  1  0.73935550  0.24075800  0.49700750  1
  C  92  1  0.79696150  0.24935850  0.45332400  1
  C  93  1  0.74091100  0.19331100  0.45332300  1
  C  96  1  0.85300400  0.30540550  0.45332850  1
  C  99  1  0.89361900  0.24238350  0.53800250  1
  C  102  1  0.70531400  0.26137450  0.36868350  1
  C  105  1  0.80076650  0.15228400  0.36520450  1
  C  108  1  0.78799750  0.34128400  0.54143650  1
  C  111  1  0.78355000  0.52434400  0.21286500  1
  C  112  1  0.75772000  0.52468600  0.18601100  1
  C  113  1  0.75559650  0.47529800  0.13874950  1
  C  114  1  0.78279250  0.47564200  0.16492450  1
  C  115  1  0.79367100  0.45071050  0.15368850  1
  C  116  1  0.77735400  0.42492300  0.11779700  1
  C  117  1  0.75027200  0.42512250  0.09243350  1
  C  118  1  0.73997650  0.45033250  0.10270300  1
  C  119  1  0.74664050  0.54965350  0.19535600  1
  C  120  1  0.76157900  0.57486300  0.23086300  1
  C  121  1  0.78713500  0.57505750  0.25814550  1
  C  122  1  0.79724250  0.54927350  0.24867600  1
  C  123  1  0.78934450  0.47621250  0.21923400  1
  C  124  1  0.81619500  0.47569350  0.24488150  1
  C  125  1  0.86345900  0.52429550  0.24621550  1
  C  126  1  0.83729200  0.52377750  0.21884850  1
  C  127  1  0.89952950  0.54899900  0.26156750  1
  C  128  1  0.90985100  0.57364800  0.25066800  1
  C  129  1  0.88454900  0.57340550  0.22312550  1
  C  130  1  0.84858850  0.54805600  0.20729050  1
  C  131  1  0.75350800  0.45194250  0.20626350  1
  C  132  1  0.74399600  0.42658300  0.21686400  1
  C  133  1  0.77129800  0.42633900  0.24191800  1
  C  134  1  0.80684700  0.45099050  0.25624650  1
  C  147  1  0.79824150  0.49999350  0.20396500  1
  C  148  1  0.85429300  0.49999400  0.26001200  1
  C  151  1  0.74219650  0.49999100  0.14791950  1
  C  154  1  0.80523300  0.60364100  0.29561500  1
  C  157  1  0.78623700  0.39633550  0.10731150  1
  C  160  1  0.89531100  0.60087050  0.21291450  1
  C  163  1  0.70632100  0.39911050  0.20015650  1
  C  166  1  0.31241000  0.47641150  0.69380050  1
  C  167  1  0.33961200  0.47743850  0.72065550  1
  C  168  1  0.33748900  0.52258050  0.76791650  1
  C  169  1  0.31165550  0.52359850  0.74174200  1
  C  170  1  0.29795550  0.54570800  0.75297750  1
  C  171  1  0.30807900  0.56531000  0.78887100  1
  C  172  1  0.33363000  0.56357750  0.81423050  1
  C  173  1  0.34856950  0.54300900  0.80396250  1
  C  174  1  0.35522500  0.45700400  0.71131000  1
  C  175  1  0.34493350  0.43644350  0.67580400  1
  C  176  1  0.31784400  0.43471300  0.64852100  1
  C  177  1  0.30153350  0.45429550  0.65799100  1
  C  178  1  0.25791250  0.47583950  0.68743800  1
  C  179  1  0.23174400  0.47703900  0.66178800  1
  C  180  1  0.27900750  0.52295850  0.66044000  1
  C  181  1  0.30585950  0.52416600  0.68781350  1
  C  182  1  0.28835600  0.54367250  0.64508350  1
  C  183  1  0.32390450  0.56489900  0.65598550  1
  C  184  1  0.35120700  0.56714700  0.68353200  1
  C  185  1  0.34169350  0.54702350  0.69936900  1
  C  186  1  0.24661650  0.45298600  0.70042050  1
  C  187  1  0.21065300  0.43284550  0.68979550  1
  C  188  1  0.18535300  0.43509000  0.66474200  1
  C  189  1  0.19567600  0.45633250  0.65043350  1
  C  202  1  0.29696200  0.50000350  0.70270050  1
  C  203  1  0.24091100  0.49999550  0.64664750  1
  C  206  1  0.35301300  0.50001150  0.75874750  1
  C  209  1  0.30895850  0.41534050  0.61105100  1
  C  212  1  0.28998850  0.58469000  0.79935750  1
  C  215  1  0.38888200  0.58812100  0.69374000  1
  C  218  1  0.19988850  0.41185550  0.70648400  1
  C  221  1  0.52401000  0.74046250  0.21813450  1
  C  222  1  0.52503250  0.76731700  0.24533050  1
  C  223  1  0.57019050  0.81457850  0.24322400  1
  C  224  1  0.57120750  0.78840400  0.21738850  1
  C  225  1  0.59332400  0.79964250  0.20369550  1
  C  226  1  0.61291450  0.83553500  0.21381350  1
  C  227  1  0.61120300  0.86089850  0.23938350  1
  C  228  1  0.59062950  0.85062700  0.25431750  1
  C  229  1  0.50459750  0.75797150  0.26094300  1
  C  230  1  0.48403850  0.72246650  0.25065500  1
  C  231  1  0.48231200  0.69518150  0.22356750  1
  C  232  1  0.50188200  0.70465250  0.20724750  1
  C  233  1  0.52344850  0.73410350  0.16364200  1
  C  234  1  0.52465250  0.70845450  0.13747700  1
  C  235  1  0.57056450  0.70710250  0.18474100  1
  C  236  1  0.57176700  0.73447250  0.21159150  1
  C  237  1  0.59126400  0.69173450  0.19409250  1
  C  238  1  0.61250950  0.70265400  0.22964050  1
  C  239  1  0.61474500  0.73019200  0.25694200  1
  C  240  1  0.59461850  0.74602500  0.24742650  1
  C  241  1  0.50059450  0.74708450  0.15234500  1
  C  242  1  0.48046800  0.73647100  0.11638400  1
  C  243  1  0.48270850  0.71141300  0.09108350  1
  C  244  1  0.50395050  0.69710400  0.10140750  1
  C  257  1  0.54760900  0.74936350  0.20269250  1
  C  258  1  0.54760750  0.69331250  0.14664400  1
  C  261  1  0.54761350  0.80540850  0.25873900  1
  C  264  1  0.46295350  0.65771700  0.21469750  1
  C  267  1  0.63227850  0.84602100  0.19570850  1
  C  270  1  0.63571900  0.74039750  0.29461450  1
  C  273  1  0.45948300  0.75316350  0.10561750  1
  C  276  1  0.57193650  0.25952700  0.68926850  1
  C  277  1  0.57228200  0.23267400  0.66344100  1
  C  278  1  0.52291200  0.18541300  0.66133800  1
  C  279  1  0.52325150  0.21158650  0.68852800  1
  C  280  1  0.49833000  0.20034950  0.69941950  1
  C  281  1  0.47254300  0.16445900  0.68310100  1
  C  282  1  0.47273600  0.13909500  0.65601400  1
  C  283  1  0.49795200  0.14936450  0.64572450  1
  C  284  1  0.59723200  0.24201600  0.65234300  1
  C  285  1  0.62245750  0.27752150  0.66729900  1
  C  286  1  0.62264850  0.30480650  0.69284900  1
  C  287  1  0.59686200  0.29533700  0.70295400  1
  C  288  1  0.52380200  0.26588600  0.69506700  1
  C  289  1  0.52328750  0.29153950  0.72191700  1
  C  290  1  0.57190500  0.29289450  0.76918350  1
  C  291  1  0.57138600  0.26552250  0.74301850  1
  C  292  1  0.59661750  0.30825900  0.80525350  1
  C  293  1  0.62126100  0.29735400  0.81557700  1
  C  294  1  0.62101800  0.26980700  0.79028000  1
  C  295  1  0.59566750  0.25397000  0.75431950  1
  C  296  1  0.49951350  0.25289350  0.65923100  1
  C  297  1  0.47418050  0.26352200  0.64971250  1
  C  298  1  0.47393550  0.28857850  0.67701400  1
  C  299  1  0.49856850  0.30288700  0.71256250  1
  C  312  1  0.54759400  0.25062800  0.70396700  1
  C  313  1  0.54759750  0.30668350  0.76001300  1
  C  316  1  0.54759950  0.19458150  0.64793300  1
  C  319  1  0.65124000  0.34227450  0.71095150  1
  C  322  1  0.44395600  0.15397050  0.69198450  1
  C  325  1  0.64848350  0.25959850  0.80104700  1
  C  328  1  0.44672300  0.24683400  0.61203600  1
  C  661  1  0.31651300  0.90862650  0.57285950  1
  C  662  1  0.33464150  0.92659350  0.61009300  1
  C  664  1  0.36257950  0.98228300  0.61362550  1
  C  665  1  0.34471050  0.96608250  0.57616500  1
  C  666  1  0.32166500  0.92900250  0.55624750  1
  C  668  1  0.38519500  0.01906250  0.63677350  1
  C  669  1  0.42230800  0.03537050  0.65885050  1
  C  670  1  0.44148750  0.07250250  0.68154400  1
  C  671  1  0.42448150  0.09281950  0.68261700  1
  C  672  1  0.38750100  0.07467450  0.66055650  1
  C  677  1  0.44087900  0.01467350  0.65818450  1
  C  681  1  0.35018900  0.98680250  0.55803550  1
  C  689  1  0.77870900  0.35062150  0.59306150  1
  C  690  1  0.76057750  0.36972250  0.59290700  1
  C  692  1  0.73266100  0.34532150  0.62067650  1
  C  693  1  0.75051700  0.32571400  0.62231600  1
  C  694  1  0.77355500  0.32884600  0.60827400  1
  C  696  1  0.71002700  0.34581800  0.63482200  1
  C  697  1  0.67291900  0.33080400  0.61401000  1
  C  698  1  0.65373350  0.33431650  0.63195600  1
  C  699  1  0.67072400  0.35235700  0.66927600  1
  C  700  1  0.70770900  0.36729500  0.68812000  1
  C  705  1  0.65436000  0.31159050  0.57474350  1
  C  709  1  0.74503950  0.30209450  0.63754600  1
  C  717  1  0.75848200  0.09136300  0.31359400  1
  C  718  1  0.77775200  0.07340050  0.31375350  1
  C  720  1  0.72559800  0.01770500  0.28600600  1
  C  721  1  0.70433600  0.03390200  0.28434100  1
  C  722  1  0.72149450  0.07098400  0.29837550  1
  C  724  1  0.71197150  0.98092600  0.27184350  1
  C  725  1  0.71774550  0.96462200  0.29265050  1
  C  726  1  0.70331050  0.92749150  0.27470100  1
  C  727  1  0.68406250  0.90717150  0.23737700  1
  C  728  1  0.68014050  0.92531300  0.21853950  1
  C  733  1  0.73778100  0.98532000  0.33191800  1
  C  737  1  0.66548700  0.01318000  0.26910400  1
  C  745  1  0.33673000  0.64937400  0.33383200  1
  C  746  1  0.31747200  0.63026750  0.29659950  1
  C  748  1  0.36963700  0.65466850  0.29307750  1
  C  749  1  0.39088700  0.67428050  0.33053750  1
  C  750  1  0.37371750  0.67115350  0.35045100  1
  C  752  1  0.38328250  0.65416850  0.26994300  1
  C  753  1  0.37747850  0.66917850  0.24784500  1
  C  754  1  0.39191000  0.66566500  0.22514600  1
  C  755  1  0.41119200  0.64762600  0.22409700  1
  C  756  1  0.41510250  0.63269350  0.24614600  1
  C  761  1  0.35742100  0.68838800  0.24849700  1
  C  765  1  0.42973650  0.69790550  0.34867700  1
  C  773  1  0.69699400  0.38047750  0.24244250  1
  C  774  1  0.67788950  0.34324400  0.22317850  1
  C  776  1  0.70229850  0.33972000  0.27534250  1
  C  777  1  0.72188900  0.37717950  0.29659750  1
  C  778  1  0.71876100  0.39709250  0.27943050  1
  C  780  1  0.70176100  0.31657250  0.28897650  1
  C  781  1  0.71678300  0.29448300  0.28320100  1
  C  782  1  0.71326650  0.27179450  0.29764300  1
  C  783  1  0.69519600  0.27073650  0.31689550  1
  C  784  1  0.68029200  0.29281100  0.32082100  1
  C  789  1  0.73600900  0.29513300  0.26315900  1
  C  793  1  0.74549850  0.39531400  0.33544650  1
  C  801  1  0.13897350  0.36023500  0.66419250  1
  C  802  1  0.12100650  0.36038900  0.68345950  1
  C  804  1  0.06531300  0.33263150  0.63130050  1
  C  805  1  0.08151700  0.33099050  0.61004350  1
  C  806  1  0.11859850  0.34503000  0.62720650  1
  C  808  1  0.02853500  0.31849400  0.61766100  1
  C  809  1  0.01224850  0.33931500  0.62346250  1
  C  810  1  0.97511650  0.32137750  0.60903300  1
  C  811  1  0.95477900  0.28405600  0.58975900  1
  C  812  1  0.97291350  0.26520650  0.58585600  1
  C  817  1  0.03296300  0.37858050  0.64350950  1
  C  821  1  0.06079950  0.31576750  0.57119700  1
  C  829  1  0.39820650  0.63973000  0.68442750  1
  C  830  1  0.41731750  0.63957000  0.66630450  1
  C  832  1  0.39291150  0.66731800  0.63835850  1
  C  833  1  0.37331400  0.66898400  0.65622200  1
  C  834  1  0.37643900  0.65494850  0.67926650  1
  C  836  1  0.39344800  0.68148250  0.61574450  1
  C  837  1  0.37841550  0.66067750  0.57863200  1
  C  838  1  0.38193100  0.67862850  0.55945250  1
  C  839  1  0.40000600  0.71595200  0.57645900  1
  C  840  1  0.41492100  0.73478800  0.61343800  1
  C  845  1  0.35918500  0.62141000  0.56006300  1
  C  849  1  0.34970200  0.68422150  0.65073650  1
  C  857  1  0.95622500  0.61949950  0.22220750  1
  C  858  1  0.97419700  0.65673100  0.24033700  1
  C  860  1  0.02988700  0.66025450  0.26825850  1
  C  861  1  0.01367600  0.62279350  0.25040450  1
  C  862  1  0.97659450  0.60288200  0.22736450  1
  C  864  1  0.06666700  0.68338950  0.29089350  1
  C  865  1  0.08296150  0.70548450  0.32800000  1
  C  866  1  0.12009250  0.72818350  0.34718600  1
  C  867  1  0.14042350  0.72923500  0.33019650  1
  C  868  1  0.12228350  0.70718850  0.29321300  1
  C  873  1  0.06225250  0.70482850  0.34655900  1
  C  877  1  0.03438850  0.60465600  0.25588750  1
  C  885  1  0.40787350  0.71087900  0.04469850  1
  C  886  1  0.40803050  0.73015050  0.02673800  1
  C  888  1  0.38028750  0.67800050  0.97104200  1
  C  889  1  0.37862150  0.65673450  0.98723600  1
  C  890  1  0.39265500  0.67389200  0.02431600  1
  C  892  1  0.36612650  0.66437450  0.93426400  1
  C  893  1  0.38693650  0.67014200  0.91796050  1
  C  894  1  0.36898800  0.65570800  0.88082800  1
  C  895  1  0.33166800  0.63647250  0.86051150  1
  C  896  1  0.31282550  0.63255650  0.87864900  1
  C  901  1  0.42620350  0.69016800  0.93866050  1
  C  905  1  0.36338400  0.61788550  0.96650950  1
  C  913  1  0.42810350  0.28912800  0.60270850  1
  C  914  1  0.39087050  0.26986750  0.58360000  1
  C  916  1  0.38734250  0.32203050  0.60800100  1
  C  917  1  0.42480450  0.34328200  0.62761450  1
  C  918  1  0.44471700  0.32611350  0.62448750  1
  C  920  1  0.36420800  0.33567300  0.60750400  1
  C  921  1  0.34211700  0.32987350  0.62252050  1
  C  922  1  0.31941800  0.34430650  0.61901150  1
  C  923  1  0.31836000  0.36358150  0.60096650  1
  C  924  1  0.34040150  0.36748650  0.58602400  1
  C  929  1  0.34277950  0.30982350  0.64173700  1
  C  933  1  0.44293950  0.38212900  0.65124050  1
  C  941  1  0.66711650  0.26890700  0.86196650  1
  C  942  1  0.70435050  0.28703000  0.87993350  1
  C  944  1  0.70788350  0.31497000  0.93562550  1
  C  945  1  0.67042350  0.29710800  0.91942350  1
  C  946  1  0.65050550  0.27406400  0.88234250  1
  C  948  1  0.73103200  0.33758100  0.97240500  1
  C  949  1  0.75311350  0.37469350  0.98871500  1
  C  950  1  0.77580700  0.39387000  0.02584900  1
  C  951  1  0.77687100  0.37686100  0.04616100  1
  C  952  1  0.75480450  0.33988100  0.02801350  1
  C  957  1  0.75245800  0.39326800  0.96802300  1
  C  961  1  0.65229300  0.30258850  0.94014350  1
  C  969  1  0.68734400  0.73110900  0.30395400  1
  C  970  1  0.68718800  0.71297900  0.32305700  1
  C  972  1  0.71495800  0.68506100  0.29866200  1
  C  973  1  0.71659800  0.70291200  0.27905100  1
  C  974  1  0.70255450  0.72595000  0.28217750  1
  C  976  1  0.72910250  0.66242500  0.29916050  1
  C  977  1  0.70828950  0.62531800  0.28414450  1
  C  978  1  0.72623400  0.60613100  0.28765500  1
  C  979  1  0.76355500  0.62312200  0.30570000  1
  C  980  1  0.78239950  0.66010450  0.32064200  1
  C  985  1  0.66902200  0.60675800  0.26492600  1
  C  989  1  0.73182600  0.69742700  0.25543000  1
  H  25  1  0.35781500  0.88838000  0.54554300  1
  H  26  1  0.37605000  0.87095200  0.50336500  1
  H  27  1  0.36852950  0.77841050  0.40330200  1
  H  28  1  0.34379050  0.71799700  0.36113150  1
  H  29  1  0.28165150  0.68631750  0.40504900  1
  H  30  1  0.28221750  0.78232700  0.50162550  1
  H  31  1  0.36250250  0.76876550  0.50305300  1
  H  32  1  0.33078850  0.70661650  0.54695000  1
  H  33  1  0.27045000  0.68081000  0.50381300  1
  H  34  1  0.26664700  0.76517600  0.40361400  1
  H  35  1  0.17793750  0.67233500  0.40282850  1
  H  36  1  0.16060700  0.68953950  0.35969750  1
  H  39  1  0.34971800  0.81926800  0.43737200  1
  H  40  1  0.38283450  0.81807000  0.46929150  1
  H  42  1  0.23107050  0.66604750  0.43763000  1
  H  43  1  0.22934700  0.69912800  0.46901200  1
  H  45  1  0.19019450  0.71505200  0.32439550  1
  H  46  1  0.22496350  0.75851650  0.35260100  1
  H  48  1  0.39160100  0.77151600  0.58226800  1
  H  49  1  0.40685800  0.77809250  0.55406550  1
  H  51  1  0.28030650  0.65573550  0.32653000  1
  H  52  1  0.27437100  0.64159200  0.35565900  1
  H  54  1  0.28688100  0.82443250  0.55101150  1
  H  55  1  0.33016050  0.85949050  0.58014200  1
  H  80  1  0.73738650  0.28199550  0.53149700  1
  H  81  1  0.71914550  0.22158300  0.49582750  1
  H  82  1  0.72666800  0.12903950  0.41080950  1
  H  83  1  0.75141250  0.11160700  0.37514250  1
  H  84  1  0.81355600  0.21766450  0.40560550  1
  H  85  1  0.81298950  0.31367300  0.50104750  1
  H  86  1  0.73269850  0.23482250  0.40719800  1
  H  87  1  0.76441700  0.31045400  0.37679000  1
  H  88  1  0.82475300  0.32765100  0.41131500  1
  H  89  1  0.82855450  0.23123750  0.49946600  1
  H  90  1  0.91726650  0.31918450  0.49535700  1
  H  91  1  0.93459850  0.29338300  0.52989450  1
  H  94  1  0.74547900  0.18192200  0.47048100  1
  H  95  1  0.71236450  0.18072450  0.43616400  1
  H  97  1  0.86414400  0.30085350  0.43593050  1
  H  98  1  0.86584300  0.33393950  0.47072850  1
  H  100  1  0.90500300  0.22847650  0.52581350  1
  H  101  1  0.87023700  0.22192650  0.53451250  1
  H  103  1  0.70361850  0.28496300  0.38087250  1
  H  104  1  0.68834900  0.24150400  0.37219400  1
  H  106  1  0.81490950  0.14050100  0.37637250  1
  H  107  1  0.82082650  0.17555650  0.36815000  1
  H  109  1  0.80831350  0.35839900  0.53847950  1
  H  110  1  0.76503850  0.34424800  0.53027150  1
  H  135  1  0.76561100  0.40778750  0.24950550  1
  H  136  1  0.82602400  0.44996600  0.27425500  1
  H  137  1  0.91856200  0.55002100  0.28176600  1
  H  138  1  0.93599000  0.59219550  0.26352750  1
  H  139  1  0.82993200  0.54827650  0.18793350  1
  H  140  1  0.73392900  0.45170450  0.18737050  1
  H  141  1  0.81277300  0.45026100  0.17237800  1
  H  142  1  0.73715200  0.40635500  0.06633200  1
  H  143  1  0.71995600  0.44949900  0.08366100  1
  H  144  1  0.81637850  0.54972050  0.26822500  1
  H  145  1  0.72842550  0.55048200  0.17617150  1
  H  146  1  0.75423400  0.59362300  0.23650800  1
  H  149  1  0.86568600  0.51595400  0.28855900  1
  H  150  1  0.86687800  0.48403200  0.25543900  1
  H  152  1  0.74675250  0.51567550  0.13507000  1
  H  153  1  0.71366250  0.48430500  0.13679150  1
  H  155  1  0.81913650  0.62893200  0.29733050  1
  H  156  1  0.82569450  0.60072000  0.31258350  1
  H  158  1  0.76265500  0.37104550  0.09591450  1
  H  159  1  0.80611450  0.39924900  0.13069550  1
  H  161  1  0.90709950  0.62679550  0.23586800  1
  H  162  1  0.87203650  0.59766250  0.19259400  1
  H  164  1  0.68920550  0.40231800  0.18009150  1
  H  165  1  0.70335500  0.37319050  0.18601850  1
  H  190  1  0.15920950  0.42179000  0.65713150  1
  H  191  1  0.17663850  0.45746650  0.63239200  1
  H  192  1  0.26917750  0.54250150  0.62488200  1
  H  193  1  0.32958950  0.57817350  0.64312100  1
  H  194  1  0.36127300  0.54772850  0.71873050  1
  H  195  1  0.26527000  0.45227100  0.71928600  1
  H  196  1  0.27883700  0.54614250  0.73428950  1
  H  197  1  0.34099050  0.57658600  0.84033850  1
  H  198  1  0.36678850  0.54204550  0.82300800  1
  H  199  1  0.28241900  0.45387050  0.63844250  1
  H  200  1  0.37525650  0.45799650  0.73049700  1
  H  201  1  0.35805400  0.42345950  0.67016050  1
  H  204  1  0.22832350  0.48283350  0.61810100  1
  H  205  1  0.22951950  0.51715150  0.65121100  1
  H  207  1  0.38154700  0.51741750  0.77159350  1
  H  208  1  0.34845750  0.48260850  0.76987800  1
  H  210  1  0.33253400  0.42753050  0.60933650  1
  H  211  1  0.28907050  0.41883350  0.59408400  1
  H  213  1  0.27608900  0.57251200  0.81075100  1
  H  214  1  0.26952500  0.58119350  0.77597350  1
  H  216  1  0.39185350  0.57695150  0.67078900  1
  H  217  1  0.40599850  0.58517650  0.71406800  1
  H  219  1  0.22316450  0.41480200  0.72654450  1
  H  220  1  0.18810050  0.42301200  0.72062450  1
  H  245  1  0.46942450  0.70381500  0.06494150  1
  H  246  1  0.50509000  0.67906850  0.08237150  1
  H  247  1  0.59012100  0.67155500  0.17491600  1
  H  248  1  0.62578300  0.68978750  0.23532850  1
  H  249  1  0.59532100  0.76538350  0.26700850  1
  H  250  1  0.49989150  0.76596250  0.17100200  1
  H  251  1  0.59374200  0.78095200  0.18456300  1
  H  252  1  0.62417700  0.88699950  0.24671450  1
  H  253  1  0.58964350  0.86966700  0.27251950  1
  H  254  1  0.50147850  0.68510100  0.18815650  1
  H  255  1  0.50559250  0.77715950  0.28097800  1
  H  256  1  0.47106550  0.71682400  0.26378250  1
  H  259  1  0.53044450  0.66476650  0.13405300  1
  H  260  1  0.56476750  0.69788100  0.13525850  1
  H  262  1  0.56501450  0.81824950  0.28727400  1
  H  263  1  0.53021450  0.81654650  0.25418600  1
  H  265  1  0.47515000  0.65601600  0.23828200  1
  H  266  1  0.46645150  0.64074900  0.19481550  1
  H  268  1  0.62009300  0.85741700  0.18181800  1
  H  269  1  0.62877450  0.82263850  0.17524000  1
  H  271  1  0.62455400  0.71744100  0.29758300  1
  H  272  1  0.63276450  0.76071650  0.31173000  1
  H  274  1  0.46242750  0.77322350  0.12889000  1
  H  275  1  0.47064850  0.76730850  0.09383500  1
  H  300  1  0.45540100  0.29618700  0.67132500  1
  H  301  1  0.49757200  0.32092900  0.73173800  1
  H  302  1  0.59763250  0.32845050  0.82428400  1
  H  303  1  0.63981050  0.31021650  0.84171800  1
  H  304  1  0.59588800  0.23460950  0.73566550  1
  H  305  1  0.49930950  0.23403450  0.63965000  1
  H  306  1  0.49787450  0.21904250  0.71851100  1
  H  307  1  0.45398300  0.11299100  0.64290700  1
  H  308  1  0.49712200  0.13032150  0.62570950  1
  H  309  1  0.59730750  0.31488700  0.72208750  1
  H  310  1  0.59809300  0.22283050  0.63416550  1
  H  311  1  0.64122350  0.28316450  0.65996300  1
  H  314  1  0.56355250  0.33522850  0.77139500  1
  H  315  1  0.53164350  0.30211800  0.77260750  1
  H  317  1  0.56329400  0.18174200  0.65249600  1
  H  318  1  0.53190900  0.18344200  0.61939600  1
  H  320  1  0.67652700  0.34398150  0.72485350  1
  H  321  1  0.64832150  0.35924250  0.73141400  1
  H  323  1  0.41866600  0.14257400  0.66840600  1
  H  324  1  0.44687100  0.17735250  0.71186450  1
  H  326  1  0.67440750  0.28255000  0.81282950  1
  H  327  1  0.64527400  0.23927250  0.77777450  1
  H  329  1  0.44993200  0.22677000  0.59492100  1
  H  330  1  0.42079550  0.23269650  0.60905800  1
  H  667  1  0.30840050  0.91646800  0.52922750  1
  H  674  1  0.46823550  0.08506950  0.69780700  1
  H  675  1  0.37370500  0.08786650  0.66098450  1
  H  676  1  0.33117800  0.91324600  0.62341900  1
  H  678  1  0.43606300  0.00041450  0.63146550  1
  H  679  1  0.43111550  0.99566250  0.66630800  1
  H  680  1  0.46942150  0.03140950  0.67590500  1
  H  682  1  0.37818900  0.00078200  0.56632700  1
  H  683  1  0.34155300  0.00606000  0.56486700  1
  H  684  1  0.33544700  0.97012050  0.52930050  1
  H  686  1  0.46762450  0.13869900  0.72618350  1
  H  688  1  0.27421050  0.86301500  0.52829550  1
  H  695  1  0.78681800  0.31508700  0.60899200  1
  H  702  1  0.62698650  0.32383550  0.61777000  1
  H  703  1  0.72149950  0.38151150  0.71510900  1
  H  704  1  0.76403150  0.38650900  0.58301950  1
  H  706  1  0.65916750  0.28968500  0.56528750  1
  H  707  1  0.66413850  0.32948950  0.56551300  1
  H  708  1  0.62581750  0.30077700  0.56292950  1
  H  710  1  0.71703850  0.28239000  0.62352550  1
  H  711  1  0.75368000  0.31755350  0.66544050  1
  H  712  1  0.75977750  0.28809750  0.63559000  1
  H  714  1  0.62759400  0.35281500  0.67201400  1
  H  716  1  0.82100600  0.34835600  0.58973700  1
  H  723  1  0.70700600  0.08351500  0.29764700  1
  H  730  1  0.70700950  0.91492650  0.28888300  1
  H  731  1  0.66737350  0.91211950  0.19155100  1
  H  732  1  0.80442350  0.08674850  0.32363400  1
  H  734  1  0.72532100  0.99957950  0.34136250  1
  H  735  1  0.76491400  0.00433400  0.34116300  1
  H  736  1  0.73877050  0.96858800  0.34372650  1
  H  738  1  0.65980500  0.99920100  0.28312700  1
  H  739  1  0.65305900  0.99392150  0.24120950  1
  H  740  1  0.65343250  0.02986050  0.27104600  1
  H  742  1  0.68175550  0.86129550  0.23464100  1
  H  744  1  0.75951900  0.13697250  0.31690850  1
  H  751  1  0.38819700  0.68491600  0.37747000  1
  H  758  1  0.38820300  0.67614400  0.20887900  1
  H  759  1  0.42787750  0.61847850  0.24572200  1
  H  760  1  0.29079800  0.61347750  0.28326950  1
  H  762  1  0.36987500  0.71029700  0.27521200  1
  H  763  1  0.33029400  0.67049000  0.24038100  1
  H  764  1  0.35642050  0.69920150  0.23076900  1
  H  766  1  0.43541500  0.71760500  0.34037600  1
  H  767  1  0.44217400  0.68244700  0.34185900  1
  H  768  1  0.44177950  0.71190550  0.37741000  1
  H  770  1  0.41347000  0.64716700  0.18050900  1
  H  772  1  0.33567950  0.65165500  0.37840050  1
  H  779  1  0.73251600  0.42411450  0.29391350  1
  H  786  1  0.72374000  0.25552150  0.29394050  1
  H  787  1  0.66607400  0.29239300  0.33359100  1
  H  788  1  0.66109900  0.32991650  0.19650650  1
  H  790  1  0.75791800  0.32184750  0.27561250  1
  H  791  1  0.71811850  0.28701000  0.23602650  1
  H  792  1  0.74682350  0.27740650  0.26217200  1
  H  794  1  0.76520450  0.38702050  0.34113500  1
  H  795  1  0.73003100  0.38848850  0.34787450  1
  H  796  1  0.75949300  0.42404950  0.34749550  1
  H  798  1  0.69474700  0.22716050  0.31920050  1
  H  800  1  0.69925150  0.42503850  0.24138900  1
  H  807  1  0.13113400  0.34431050  0.61272250  1
  H  814  1  0.96256150  0.33556950  0.61273800  1
  H  815  1  0.95970900  0.23821600  0.57308600  1
  H  816  1  0.13435250  0.37027100  0.71012950  1
  H  818  1  0.04722150  0.38802550  0.63105000  1
  H  819  1  0.05197650  0.38781300  0.67063750  1
  H  820  1  0.01624050  0.39040150  0.64451200  1
  H  822  1  0.04682350  0.32979500  0.56552350  1
  H  823  1  0.04154150  0.28787300  0.55876050  1
  H  824  1  0.07748450  0.31772000  0.55914650  1
  H  826  1  0.90891550  0.28133550  0.58747500  1
  H  828  1  0.18458850  0.36356950  0.66522900  1
  H  835  1  0.36268100  0.65567800  0.69252900  1
  H  842  1  0.37144800  0.66444750  0.53270550  1
  H  843  1  0.42914250  0.76177700  0.62723450  1
  H  844  1  0.43410900  0.62969050  0.66977450  1
  H  846  1  0.33727950  0.61196300  0.56487450  1
  H  847  1  0.37707350  0.61216550  0.56983100  1
  H  848  1  0.34836450  0.60960150  0.53152000  1
  H  850  1  0.32999850  0.67019950  0.62273700  1
  H  851  1  0.36516900  0.71211450  0.65937350  1
  H  852  1  0.33570600  0.68227900  0.66547500  1
  H  854  1  0.40043250  0.71868800  0.53331750  1
  H  856  1  0.39593600  0.63642000  0.72672600  1
  H  863  1  0.96405500  0.57586100  0.21410500  1
  H  870  1  0.13265250  0.74444750  0.37393400  1
  H  871  1  0.13548200  0.70761550  0.27942250  1
  H  872  1  0.96085650  0.67006350  0.23688100  1
  H  874  1  0.04799150  0.67811250  0.34175000  1
  H  875  1  0.04324100  0.71294650  0.33677950  1
  H  876  1  0.07898100  0.72255650  0.37510150  1
  H  878  1  0.04836600  0.61295250  0.28388750  1
  H  879  1  0.05364300  0.61147550  0.24724750  1
  H  880  1  0.01769900  0.57592250  0.24115050  1
  H  882  1  0.18629100  0.77282150  0.37332850  1
  H  884  1  0.91060750  0.57493250  0.17991400  1
  H  891  1  0.39192800  0.65940250  0.03684750  1
  H  898  1  0.38317300  0.65940300  0.86826500  1
  H  899  1  0.28583750  0.61979750  0.86545600  1
  H  900  1  0.41790950  0.75682100  0.04008750  1
  H  902  1  0.43564150  0.67770350  0.95291900  1
  H  903  1  0.43545450  0.71730150  0.95767800  1
  H  904  1  0.43801500  0.69115350  0.92192950  1
  H  906  1  0.37740950  0.61220650  0.95253400  1
  H  907  1  0.33549300  0.60546050  0.94725250  1
  H  908  1  0.36532500  0.60582900  0.98318900  1
  H  910  1  0.32893850  0.63415600  0.81463250  1
  H  912  1  0.41119300  0.71191300  0.09030800  1
  H  919  1  0.47173900  0.34059550  0.63825350  1
  H  926  1  0.30315600  0.34060250  0.62949650  1
  H  927  1  0.33997000  0.38025550  0.57180550  1
  H  928  1  0.37754200  0.24319400  0.56680900  1
  H  930  1  0.36949650  0.32228050  0.66364300  1
  H  931  1  0.33466150  0.28269500  0.62383950  1
  H  932  1  0.32505300  0.30882300  0.65255400  1
  H  934  1  0.43463850  0.38780700  0.67094150  1
  H  935  1  0.43612100  0.39456750  0.63578350  1
  H  936  1  0.47167450  0.39417650  0.66524200  1
  H  938  1  0.27477800  0.36586700  0.60052300  1
  H  940  1  0.47267650  0.28808300  0.60499950  1
  H  947  1  0.62348450  0.26080300  0.86980750  1
  H  954  1  0.79207300  0.42061800  0.03841700  1
  H  955  1  0.75522750  0.32608350  0.04120400  1
  H  956  1  0.71767400  0.28356200  0.86658600  1
  H  958  1  0.72574100  0.38845750  0.95376250  1
  H  959  1  0.76057950  0.38350050  0.94901000  1
  H  960  1  0.77018100  0.42180900  0.98475900  1
  H  962  1  0.66059000  0.33059000  0.95412500  1
  H  963  1  0.65911900  0.29394900  0.95939700  1
  H  964  1  0.62355800  0.28785150  0.92345950  1
  H  966  1  0.82044000  0.41999750  0.09204150  1
  H  968  1  0.62254950  0.22660950  0.81635500  1
  H  975  1  0.70327350  0.73920850  0.26841600  1
  H  982  1  0.71204700  0.57938150  0.27716950  1
  H  983  1  0.80938750  0.67389500  0.33485950  1
  H  984  1  0.67730200  0.71643800  0.33984400  1
  H  986  1  0.65957100  0.61156850  0.24302050  1
  H  987  1  0.65978850  0.61653600  0.28282250  1
  H  988  1  0.65720700  0.57821500  0.25411000  1
  H  990  1  0.71780600  0.66942650  0.23572650  1
  H  991  1  0.75972200  0.70606850  0.27089050  1
  H  992  1  0.72987250  0.71216400  0.24143150  1
  H  994  1  0.76628950  0.57998750  0.30614600  1
  H  996  1  0.68401600  0.77340000  0.30167700  1
  N  663  1  0.35659350  0.96204700  0.62878850  1
  N  673  1  0.36954900  0.03921850  0.63879750  1
  N  685  1  0.44273300  0.12976050  0.70666150  1
  N  687  1  0.29242700  0.87167150  0.55370050  1
  N  691  1  0.73863150  0.36646350  0.60641700  1
  N  701  1  0.72566600  0.36349000  0.67062200  1
  N  713  1  0.65247800  0.35817500  0.68796800  1
  N  715  1  0.80278500  0.35554200  0.58018000  1
  N  719  1  0.76099700  0.03794600  0.30025200  1
  N  729  1  0.69383800  0.96077150  0.23604450  1
  N  741  1  0.67116600  0.87023000  0.21868900  1
  N  743  1  0.77627300  0.12831950  0.32646350  1
  N  747  1  0.33423700  0.63352350  0.27790850  1
  N  757  1  0.40141150  0.63649850  0.26791100  1
  N  769  1  0.42406700  0.64181050  0.20003450  1
  N  771  1  0.31893200  0.64445700  0.35299100  1
  N  775  1  0.68114650  0.32455150  0.23994100  1
  N  785  1  0.68410200  0.31456550  0.30711850  1
  N  797  1  0.68939700  0.24669350  0.32979550  1
  N  799  1  0.69206500  0.39963400  0.22464200  1
  N  803  1  0.08555150  0.34688500  0.66670050  1
  N  813  1  0.00836750  0.28269450  0.59954100  1
  N  825  1  0.91784150  0.26537300  0.57688550  1
  N  827  1  0.17593150  0.37311450  0.68198400  1
  N  831  1  0.41406300  0.65307250  0.64435150  1
  N  841  1  0.41111350  0.71728350  0.63138900  1
  N  853  1  0.40579750  0.73464100  0.55820550  1
  N  855  1  0.40313250  0.62686250  0.70851500  1
  N  859  1  0.00965400  0.67542300  0.26228400  1
  N  869  1  0.08682800  0.68542400  0.27525500  1
  N  881  1  0.17736000  0.75329650  0.34844150  1
  N  883  1  0.91926800  0.60034000  0.19813000  1
  N  887  1  0.39453050  0.71339750  0.99128200  1
  N  897  1  0.33032700  0.64625050  0.91410650  1
  N  909  1  0.31298300  0.62357700  0.82356800  1
  N  911  1  0.42074350  0.72866950  0.08165500  1
  N  915  1  0.37217700  0.28663100  0.58685500  1
  N  925  1  0.36216700  0.35379600  0.58982600  1
  N  937  1  0.29429650  0.37645650  0.59515500  1
  N  939  1  0.44726450  0.27133150  0.59779300  1
  N  943  1  0.72304600  0.30898050  0.91538850  1
  N  953  1  0.73304850  0.32193250  0.99255600  1
  N  965  1  0.80091600  0.39510900  0.08310400  1
  N  967  1  0.64795700  0.24482100  0.82501100  1
  N  971  1  0.70069800  0.69103400  0.31980200  1
  N  981  1  0.76490200  0.67806400  0.31683700  1
  N  993  1  0.78224650  0.60487500  0.31151450  1
  N  995  1  0.67446300  0.75518450  0.30886950  1
