# generated using pymatgen
data_ZnPH5C5NO4
_symmetry_space_group_name_H-M   'P 1'
_cell_length_a   7.89353000
_cell_length_b   10.49329000
_cell_length_c   11.71040294
_cell_angle_alpha   116.47520201
_cell_angle_beta   93.97312854
_cell_angle_gamma   90.02682000
_symmetry_Int_Tables_number   1
_chemical_formula_structural   ZnPH5C5NO4
_chemical_formula_sum   'Zn4 P4 H20 C20 N4 O16'
_cell_volume   865.61879210
_cell_formula_units_Z   4
loop_
 _symmetry_equiv_pos_site_id
 _symmetry_equiv_pos_as_xyz
  1  'x, y, z'
loop_
 _atom_site_type_symbol
 _atom_site_label
 _atom_site_symmetry_multiplicity
 _atom_site_fract_x
 _atom_site_fract_y
 _atom_site_fract_z
 _atom_site_occupancy
  Zn  Zn0  1  0.92887000  0.14821000  0.45729000  1
  Zn  Zn1  1  0.57218000  0.68793000  0.54374000  1
  Zn  Zn2  1  0.07113000  0.85178000  0.54271000  1
  Zn  Zn3  1  0.42781000  0.31206000  0.45626000  1
  P  P4  1  0.78453000  0.44616000  0.54075000  1
  P  P5  1  0.71751000  0.90270000  0.45832000  1
  P  P6  1  0.21546000  0.55383000  0.45925000  1
  P  P7  1  0.28249000  0.09729000  0.54168000  1
  H  H8  1  0.03446000  0.48988000  0.63715000  1
  H  H9  1  0.00373000  0.84097000  0.26131000  1
  H  H10  1  0.15770000  0.73398000  0.06353000  1
  H  H11  1  0.21014000  0.15730000  0.08944000  1
  H  H12  1  0.04934000  0.24456000  0.28197000  1
  H  H13  1  0.46744000  0.85604000  0.36254000  1
  H  H14  1  0.49566000  0.57962000  0.74018000  1
  H  H15  1  0.34192000  0.67121000  0.93829000  1
  H  H16  1  0.29191000  0.06718000  0.90948000  1
  H  H17  1  0.45175000  0.96106000  0.71688000  1
  H  H18  1  0.96554000  0.51011000  0.36285000  1
  H  H19  1  0.99627000  0.15904000  0.73870000  1
  H  H20  1  0.84229000  0.26602000  0.93648000  1
  H  H21  1  0.78985000  0.84269000  0.91056000  1
  H  H22  1  0.95066000  0.75544000  0.71803000  1
  H  H23  1  0.53255000  0.14395000  0.63746000  1
  H  H24  1  0.50433000  0.42038000  0.25983000  1
  H  H25  1  0.65808000  0.32878000  0.06171000  1
  H  H26  1  0.70808000  0.93283000  0.09053000  1
  H  H27  1  0.54824000  0.03893000  0.28312000  1
  C  C28  1  0.05155000  0.90584000  0.21840000  1
  C  C29  1  0.13938000  0.84809000  0.10846000  1
  C  C30  1  0.20159000  0.93619000  0.05780000  1
  C  C31  1  0.16625000  0.08145000  0.12157000  1
  C  C32  1  0.07688000  0.13221000  0.23032000  1
  C  C33  1  0.44811000  0.68725000  0.78264000  1
  C  C34  1  0.36046000  0.73977000  0.89255000  1
  C  C35  1  0.29877000  0.87839000  0.94249000  1
  C  C36  1  0.33480000  0.95919000  0.87794000  1
  C  C37  1  0.42393000  0.90086000  0.76911000  1
  C  C38  1  0.94844000  0.09416000  0.78161000  1
  C  C39  1  0.86061000  0.15190000  0.89154000  1
  C  C40  1  0.79841000  0.06380000  0.94220000  1
  C  C41  1  0.83375000  0.91856000  0.87844000  1
  C  C42  1  0.92311000  0.86778000  0.76968000  1
  C  C43  1  0.55188000  0.31275000  0.21737000  1
  C  C44  1  0.63953000  0.26022000  0.10745000  1
  C  C45  1  0.70122000  0.12161000  0.05751000  1
  C  C46  1  0.66519000  0.04080000  0.12206000  1
  C  C47  1  0.57607000  0.09913000  0.23089000  1
  N  N48  1  0.02101000  0.04615000  0.27893000  1
  N  N49  1  0.47917000  0.76625000  0.72127000  1
  N  N50  1  0.97899000  0.95384000  0.72107000  1
  N  N51  1  0.52082000  0.23375000  0.27873000  1
  O  O52  1  0.85780000  0.31399000  0.43518000  1
  O  O53  1  0.11737000  0.17598000  0.58881000  1
  O  O54  1  0.76657000  0.56284000  0.49423000  1
  O  O55  1  0.91863000  0.50395000  0.66631000  1
  O  O56  1  0.64117000  0.87605000  0.56322000  1
  O  O57  1  0.38320000  0.58248000  0.41311000  1
  O  O58  1  0.74036000  0.06542000  0.50592000  1
  O  O59  1  0.58269000  0.83877000  0.33294000  1
  O  O60  1  0.14219000  0.68601000  0.56483000  1
  O  O61  1  0.88263000  0.82401000  0.41119000  1
  O  O62  1  0.23342000  0.43715000  0.50577000  1
  O  O63  1  0.08137000  0.49605000  0.33370000  1
  O  O64  1  0.35883000  0.12394000  0.43678000  1
  O  O65  1  0.61679000  0.41751000  0.58689000  1
  O  O66  1  0.25963000  0.93458000  0.49409000  1
  O  O67  1  0.41730000  0.16123000  0.66707000  1
