# generated using pymatgen
data_ZnH13C22(NO2)2
_symmetry_space_group_name_H-M   'P 1'
_cell_length_a   11.82033000
_cell_length_b   15.65686000
_cell_length_c   15.88480000
_cell_angle_alpha   90.00000000
_cell_angle_beta   90.29410000
_cell_angle_gamma   90.00000000
_symmetry_Int_Tables_number   1
_chemical_formula_structural   ZnH13C22(NO2)2
_chemical_formula_sum   'Zn2 H26 C44 N4 O8'
_cell_volume   2939.74932517
_cell_formula_units_Z   2
loop_
 _symmetry_equiv_pos_site_id
 _symmetry_equiv_pos_as_xyz
  1  'x, y, z'
loop_
 _atom_site_type_symbol
 _atom_site_label
 _atom_site_symmetry_multiplicity
 _atom_site_fract_x
 _atom_site_fract_y
 _atom_site_fract_z
 _atom_site_occupancy
  Zn  Zn1  1  0.51091000  0.50000000  0.58589000  1.0
  Zn  Zn2  1  0.48910000  0.50000000  0.41411000  1.0
  H  H1  1  0.80096000  0.32808000  0.61171000  1.0
  H  H2  1  0.34750000  0.50000000  0.72524000  1.0
  H  H3  1  0.19670000  0.13371000  0.63503000  1.0
  H  H4  1  0.34862000  0.50000000  0.88493000  1.0
  H  H5  1  0.79424000  0.00000000  0.47269000  1.0
  H  H6  1  0.31743000  0.73493000  0.63571000  1.0
  H  H7  1  0.68257000  0.26507000  0.36429000  1.0
  H  H8  1  0.80330000  0.13371000  0.36497000  1.0
  H  H9  1  0.80096000  0.67192000  0.61171000  1.0
  H  H10  1  0.80330000  0.86629000  0.36497000  1.0
  H  H11  1  0.19904000  0.67192000  0.38828000  1.0
  H  H12  1  0.28713000  0.50000000  0.12491000  1.0
  H  H13  1  0.71288000  0.50000000  0.87508000  1.0
  H  H14  1  0.68257000  0.73493000  0.36429000  1.0
  H  H15  1  0.65138000  0.50000000  0.11507000  1.0
  H  H16  1  0.19670000  0.86629000  0.63503000  1.0
  H  H17  1  0.30331000  0.50000000  0.28465000  1.0
  H  H18  1  0.07163000  0.20087000  0.38922000  1.0
  H  H19  1  0.69669000  0.50000000  0.71534000  1.0
  H  H20  1  0.92837000  0.20087000  0.61078000  1.0
  H  H21  1  0.07163000  0.79913000  0.38922000  1.0
  H  H22  1  0.65250000  0.50000000  0.27476000  1.0
  H  H23  1  0.19904000  0.32808000  0.38828000  1.0
  H  H24  1  0.92837000  0.79913000  0.61078000  1.0
  H  H25  1  0.20576000  0.00000000  0.52731000  1.0
  H  H26  1  0.31743000  0.26507000  0.63571000  1.0
  C  C1  1  0.36884000  0.50000000  0.15666000  1.0
  C  C2  1  0.12627000  0.84170000  0.51196000  1.0
  C  C3  1  0.73429000  0.30460000  0.48791000  1.0
  C  C4  1  0.87433000  0.78521000  0.55687000  1.0
  C  C5  1  0.57425000  0.50000000  0.23829000  1.0
  C  C6  1  0.80400000  0.71392000  0.55735000  1.0
  C  C7  1  0.80382000  0.82309000  0.41865000  1.0
  C  C8  1  0.88548000  0.00000000  0.48231000  1.0
  C  C9  1  0.37737000  0.50000000  0.24415000  1.0
  C  C10  1  0.73623000  0.74999000  0.41801000  1.0
  C  C11  1  0.94129000  0.92146000  0.49128000  1.0
  C  C12  1  0.12627000  0.15829000  0.51196000  1.0
  C  C13  1  0.12567000  0.78521000  0.44313000  1.0
  C  C14  1  0.19618000  0.82309000  0.58135000  1.0
  C  C15  1  0.42575000  0.50000000  0.76171000  1.0
  C  C16  1  0.73623000  0.25001000  0.41801000  1.0
  C  C17  1  0.05871000  0.07853000  0.50872000  1.0
  C  C18  1  0.11452000  0.00000000  0.51768000  1.0
  C  C19  1  0.87373000  0.84170000  0.48804000  1.0
  C  C20  1  0.05871000  0.92146000  0.50872000  1.0
  C  C21  1  0.19618000  0.17691000  0.58135000  1.0
  C  C22  1  0.53157000  0.50000000  0.89086000  1.0
  C  C23  1  0.57341000  0.50000000  0.15096000  1.0
  C  C24  1  0.87433000  0.21478000  0.55687000  1.0
  C  C25  1  0.63116000  0.50000000  0.84333000  1.0
  C  C26  1  0.42660000  0.50000000  0.84903000  1.0
  C  C27  1  0.80382000  0.17691000  0.41865000  1.0
  C  C28  1  0.12567000  0.21478000  0.44313000  1.0
  C  C29  1  0.94129000  0.07853000  0.49128000  1.0
  C  C30  1  0.19601000  0.28608000  0.44264000  1.0
  C  C31  1  0.26377000  0.25001000  0.58199000  1.0
  C  C32  1  0.87373000  0.15829000  0.48804000  1.0
  C  C33  1  0.65466000  0.62083000  0.49086000  1.0
  C  C34  1  0.26377000  0.74999000  0.58199000  1.0
  C  C35  1  0.19601000  0.71392000  0.44264000  1.0
  C  C36  1  0.73429000  0.69539000  0.48791000  1.0
  C  C37  1  0.26572000  0.30460000  0.51208000  1.0
  C  C38  1  0.26572000  0.69539000  0.51208000  1.0
  C  C39  1  0.65466000  0.37917000  0.49086000  1.0
  C  C40  1  0.80400000  0.28608000  0.55735000  1.0
  C  C41  1  0.46843000  0.50000000  0.10914000  1.0
  C  C42  1  0.62263000  0.50000000  0.75585000  1.0
  C  C43  1  0.34534000  0.62083000  0.50913000  1.0
  C  C44  1  0.34534000  0.37917000  0.50913000  1.0
  N  N1  1  0.52190000  0.50000000  0.71605000  1.0
  N  N2  1  0.45368000  0.50000000  0.02025000  1.0
  N  N3  1  0.54632000  0.50000000  0.97975000  1.0
  N  N4  1  0.47810000  0.50000000  0.28395000  1.0
  O  O1  1  0.38813000  0.40544000  0.57857000  1.0
  O  O2  1  0.63397000  0.40973000  0.56363000  1.0
  O  O3  1  0.38813000  0.59456000  0.57857000  1.0
  O  O4  1  0.61188000  0.40544000  0.42143000  1.0
  O  O5  1  0.63397000  0.59027000  0.56363000  1.0
  O  O6  1  0.36603000  0.59027000  0.43637000  1.0
  O  O7  1  0.61188000  0.59456000  0.42143000  1.0
  O  O8  1  0.36603000  0.40973000  0.43637000  1.0
