# generated using pymatgen
data_V2H16C27O10
_symmetry_space_group_name_H-M   'P 1'
_cell_length_a   6.95880000
_cell_length_b   13.51255000
_cell_length_c   20.28349000
_cell_angle_alpha   103.05895000
_cell_angle_beta   89.89773000
_cell_angle_gamma   89.53314000
_symmetry_Int_Tables_number   1
_chemical_formula_structural   V2H16C27O10
_chemical_formula_sum   'V4 H32 C54 O20'
_cell_volume   1857.87912814
_cell_formula_units_Z   2
loop_
 _symmetry_equiv_pos_site_id
 _symmetry_equiv_pos_as_xyz
  1  'x, y, z'
loop_
 _atom_site_type_symbol
 _atom_site_label
 _atom_site_symmetry_multiplicity
 _atom_site_fract_x
 _atom_site_fract_y
 _atom_site_fract_z
 _atom_site_occupancy
  V  V0  1  0.06466000  0.48811000  0.49769000  1
  V  V1  1  0.56403000  0.51189000  0.50231000  1
  V  V2  1  0.64818000  0.01189000  0.00231000  1
  V  V3  1  0.14880000  0.98805000  0.99770000  1
  H  H4  1  0.87302000  0.02127000  0.30500000  1
  H  H5  1  0.86729000  0.97944000  0.41237000  1
  H  H6  1  0.84677000  0.61144000  0.30795000  1
  H  H7  1  0.85651000  0.66017000  0.01631000  1
  H  H8  1  0.84444000  0.56834000  0.20275000  1
  H  H9  1  0.84503000  0.52701000  0.08096000  1
  H  H10  1  0.87260000  0.97385000  0.18350000  1
  H  H11  1  0.14274000  0.85543000  0.78424000  1
  H  H12  1  0.12994000  0.74200000  0.67123000  1
  H  H13  1  0.41058000  0.62957000  0.72554000  1
  H  H14  1  0.46203000  0.74117000  0.68746000  1
  H  H15  1  0.42503000  0.73810000  0.83669000  1
  H  H16  1  0.47544000  0.84967000  0.79867000  1
  H  H17  1  0.07771000  0.24580000  0.32527000  1
  H  H18  1  0.08129000  0.13627000  0.21108000  1
  H  H19  1  0.79300000  0.27362000  0.17011000  1
  H  H20  1  0.74883000  0.16036000  0.20714000  1
  H  H21  1  0.78867000  0.38181000  0.28147000  1
  H  H22  1  0.74517000  0.26863000  0.31865000  1
  H  H23  1  0.35325000  0.15741000  0.51701000  1
  H  H24  1  0.35863000  0.98154000  0.69324000  1
  H  H25  1  0.35768000  0.02793000  0.58438000  1
  H  H26  1  0.35518000  0.39428000  0.69591000  1
  H  H27  1  0.35812000  0.33810000  0.98518000  1
  H  H28  1  0.35162000  0.43450000  0.80067000  1
  H  H29  1  0.35230000  0.47327000  0.92217000  1
  H  H30  1  0.35793000  0.02656000  0.81524000  1
  H  H31  1  0.71455000  0.76990000  0.55181000  1
  H  H32  1  0.97903000  0.76267000  0.55125000  1
  H  H33  1  0.85327000  0.86175000  0.60926000  1
  H  H34  1  0.98930000  0.92662000  0.51744000  1
  H  H35  1  0.73237000  0.93274000  0.51738000  1
  C  C36  1  0.34841000  0.38223000  0.38494000  1
  C  C37  1  0.34635000  0.36121000  0.56402000  1
  C  C38  1  0.84015000  0.61504000  0.61594000  1
  C  C39  1  0.84334000  0.64172000  0.43790000  1
  C  C40  1  0.86268000  0.89868000  0.38935000  1
  C  C41  1  0.85118000  0.72335000  0.40016000  1
  C  C42  1  0.85622000  0.68151000  0.07112000  1
  C  C43  1  0.84981000  0.60600000  0.10763000  1
  C  C44  1  0.84964000  0.63113000  0.17823000  1
  C  C45  1  0.85595000  0.73377000  0.21449000  1
  C  C46  1  0.86195000  0.81084000  0.17647000  1
  C  C47  1  0.85652000  0.76278000  0.28698000  1
  C  C48  1  0.86254000  0.86734000  0.31891000  1
  C  C49  1  0.86829000  0.94115000  0.28061000  1
  C  C50  1  0.86804000  0.91355000  0.21064000  1
  C  C51  1  0.85131000  0.69212000  0.32902000  1
  C  C52  1  0.85672000  0.82931000  0.43123000  1
  C  C53  1  0.86212000  0.78375000  0.10476000  1
  C  C54  1  0.71357000  0.74533000  0.79760000  1
  C  C55  1  0.86741000  0.81155000  0.81737000  1
  C  C56  1  0.02130000  0.80560000  0.77136000  1
  C  C57  1  0.01354000  0.74075000  0.70637000  1
  C  C58  1  0.85076000  0.68067000  0.68516000  1
  C  C59  1  0.70525000  0.68176000  0.73309000  1
  C  C60  1  0.49515000  0.69964000  0.72759000  1
  C  C61  1  0.50405000  0.76845000  0.79796000  1
  C  C62  1  0.49998000  0.32108000  0.27000000  1
  C  C63  1  0.35191000  0.31615000  0.31582000  1
  C  C64  1  0.19638000  0.25155000  0.29193000  1
  C  C65  1  0.19781000  0.18880000  0.22622000  1
  C  C66  1  0.35504000  0.18854000  0.18249000  1
  C  C67  1  0.50202000  0.25841000  0.20515000  1
  C  C68  1  0.71339000  0.24084000  0.20759000  1
  C  C69  1  0.71096000  0.30929000  0.27816000  1
  C  C70  1  0.35734000  0.10750000  0.61019000  1
  C  C71  1  0.35498000  0.28371000  0.60379000  1
  C  C72  1  0.35646000  0.31793000  0.93034000  1
  C  C73  1  0.35358000  0.39454000  0.89482000  1
  C  C74  1  0.35336000  0.37074000  0.82430000  1
  C  C75  1  0.35547000  0.26835000  0.78714000  1
  C  C76  1  0.35672000  0.19011000  0.82400000  1
  C  C77  1  0.35660000  0.24099000  0.71481000  1
  C  C78  1  0.35760000  0.13641000  0.68120000  1
  C  C79  1  0.35810000  0.06136000  0.71852000  1
  C  C80  1  0.35777000  0.08762000  0.78873000  1
  C  C81  1  0.35622000  0.31370000  0.67441000  1
  C  C82  1  0.35525000  0.18082000  0.57173000  1
  C  C83  1  0.35786000  0.21608000  0.89571000  1
  C  C84  1  0.36664000  0.13827000  0.93556000  1
  C  C85  1  0.36424000  0.11735000  0.11521000  1
  C  C86  1  0.86971000  0.86104000  0.06408000  1
  C  C87  1  0.87279000  0.88276000  0.88475000  1
  C  C88  1  0.85754000  0.87970000  0.50657000  1
  C  C89  1  0.85059000  0.81295000  0.55725000  1
  O  O90  1  0.50677000  0.40030000  0.55045000  1
  O  O91  1  0.17998000  0.40426000  0.41204000  1
  O  O92  1  0.00458000  0.59970000  0.44955000  1
  O  O93  1  0.17738000  0.38830000  0.54762000  1
  O  O94  1  0.00197000  0.58363000  0.58610000  1
  O  O95  1  0.50939000  0.41637000  0.41390000  1
  O  O96  1  0.33753000  0.56411000  0.51247000  1
  O  O97  1  0.67195000  0.59574000  0.58796000  1
  O  O98  1  0.67454000  0.61170000  0.45238000  1
  O  O99  1  0.84103000  0.43589000  0.48753000  1
  O  O100  1  0.20345000  0.08368000  0.08609000  1
  O  O101  1  0.53552000  0.11170000  0.95238000  1
  O  O102  1  0.71086000  0.91635000  0.91390000  1
  O  O103  1  0.53286000  0.09575000  0.08796000  1
  O  O104  1  0.70819000  0.90029000  0.05045000  1
  O  O105  1  0.20612000  0.09974000  0.94954000  1
  O  O106  1  0.37528000  0.93592000  0.98753000  1
  O  O107  1  0.03822000  0.88826000  0.04763000  1
  O  O108  1  0.04088000  0.90421000  0.91206000  1
  O  O109  1  0.87182000  0.06408000  0.01247000  1
