# generated using pymatgen
data_H3C6O
_symmetry_space_group_name_H-M   'P 1'
_cell_length_a   10.13716667
_cell_length_b   10.13716667
_cell_length_c   14.33620000
_cell_angle_alpha   90.00000000
_cell_angle_beta   90.00000000
_cell_angle_gamma   90.00000000
_symmetry_Int_Tables_number   1
_chemical_formula_structural   H3C6O
_chemical_formula_sum   'H24 C48 O8'
_cell_volume   1473.21870656
_cell_formula_units_Z   8
loop_
 _symmetry_equiv_pos_site_id
 _symmetry_equiv_pos_as_xyz
  1  'x, y, z'
loop_
 _atom_site_type_symbol
 _atom_site_label
 _atom_site_symmetry_multiplicity
 _atom_site_fract_x
 _atom_site_fract_y
 _atom_site_fract_z
 _atom_site_occupancy
  C  1  1  0.49691000  0.99446800  0.04059700  1
  C  2  1  0.40391100  0.06769800  0.09154800  1
  C  3  1  0.40366400  0.06560600  0.18984300  1
  C  4  1  0.49758200  0.98528300  0.23621600  1
  C  5  1  0.59235600  0.91048800  0.18603600  1
  C  6  1  0.59277100  0.91822700  0.08729900  1
  C  9  1  0.49055700  0.99576800  0.94310400  1
  C  10  1  0.39434800  0.92114200  0.89546600  1
  C  11  1  0.39354900  0.91760000  0.79663900  1
  C  12  1  0.48786900  0.99426600  0.74739300  1
  C  13  1  0.58236400  0.07270000  0.79476600  1
  C  14  1  0.58293100  0.07109100  0.89311900  1
  C  21  1  0.98796000  0.49338900  0.54061300  1
  C  22  1  0.91262800  0.40092900  0.59053800  1
  C  23  1  0.91054800  0.40143500  0.68892300  1
  C  24  1  0.98922000  0.49570200  0.73631900  1
  C  25  1  0.06617300  0.58970800  0.68710300  1
  C  26  1  0.06261200  0.58950600  0.58829800  1
  C  29  1  0.98946900  0.48700000  0.44313300  1
  C  30  1  0.06634600  0.39155000  0.39654300  1
  C  31  1  0.07369500  0.39167900  0.29778200  1
  C  32  1  0.99845700  0.48603900  0.24754300  1
  C  33  1  0.91765300  0.57967600  0.29380300  1
  C  34  1  0.91544000  0.57932000  0.39214100  1
  C  41  1  0.04784500  0.03561300  0.24293500  1
  C  42  1  0.01698900  0.17063100  0.25625000  1
  C  43  1  0.11275900  0.27183400  0.25580900  1
  C  44  1  0.24710300  0.23671900  0.24443400  1
  C  45  1  0.28375900  0.10264400  0.23237100  1
  C  46  1  0.18336600  0.00577700  0.23113700  1
  C  49  1  0.94803300  0.93588500  0.24147300  1
  C  50  1  0.81318800  0.96712100  0.22801200  1
  C  51  1  0.71186700  0.87156700  0.22839000  1
  C  52  1  0.74629600  0.73729300  0.24166500  1
  C  53  1  0.88040500  0.69993200  0.25173800  1
  C  54  1  0.97753300  0.80016600  0.25289400  1
  C  61  1  0.93849400  0.04502300  0.74142500  1
  C  62  1  0.80305000  0.01471400  0.75346500  1
  C  63  1  0.70224500  0.11114600  0.75267000  1
  C  64  1  0.73867300  0.24547400  0.74300500  1
  C  65  1  0.87284500  0.28115500  0.73069400  1
  C  66  1  0.96904000  0.18030800  0.72913900  1
  C  69  1  0.03828100  0.94523600  0.74155100  1
  C  70  1  0.00793200  0.81002100  0.72885300  1
  C  71  1  0.10426600  0.70919900  0.72988100  1
  C  72  1  0.23833700  0.74478000  0.74293900  1
  C  73  1  0.27422600  0.87903000  0.75380300  1
  C  74  1  0.17352600  0.97547100  0.75439700  1
  H  7  1  0.33160800  0.11833800  0.05634900  1
  H  8  1  0.49734400  0.98176000  0.30762700  1
  H  15  1  0.48759400  0.99320000  0.67594400  1
  H  16  1  0.65551500  0.12040500  0.92897200  1
  H  19  1  0.75632200  0.90605400  0.02318700  1
  H  20  1  0.23052400  0.90661000  0.95896600  1
  H  27  1  0.86337400  0.32839300  0.55459300  1
  H  28  1  0.99034600  0.49587900  0.80776900  1
  H  35  1  0.00199900  0.48619600  0.17613600  1
  H  36  1  0.86455300  0.65140700  0.42739500  1
  H  39  1  0.07716200  0.75300900  0.52438900  1
  H  40  1  0.07946600  0.22831400  0.46098400  1
  H  47  1  0.92318900  0.19655600  0.27497000  1
  H  56  1  0.07100700  0.77308800  0.27158900  1
  H  57  1  0.38743300  0.32912300  0.30212500  1
  H  58  1  0.60335000  0.64789000  0.29848000  1
  H  59  1  0.21013400  0.91238700  0.21199800  1
  H  60  1  0.78758300  0.06085600  0.20889900  1
  H  67  1  0.77653600  0.92097500  0.77192900  1
  H  76  1  0.19979100  0.06915800  0.77317700  1
  H  77  1  0.64766700  0.38640200  0.80107900  1
  H  78  1  0.32863900  0.60263000  0.80007500  1
  H  79  1  0.06264700  0.20667200  0.71022900  1
  H  80  1  0.91451300  0.78386500  0.70932900  1
  O  17  1  0.68212100  0.84667400  0.03667200  1
  O  18  1  0.30529000  0.84806000  0.94524500  1
  O  37  1  0.13588700  0.67858800  0.53867500  1
  O  38  1  0.13842200  0.30277800  0.44731200  1
  O  48  1  0.34032900  0.33362000  0.24229700  1
  O  55  1  0.65163300  0.64180900  0.23918900  1
  O  68  1  0.64249900  0.33948500  0.74120300  1
  O  75  1  0.33467600  0.65098300  0.74081500  1
