# generated using pymatgen
data_H5(C6N)2
_symmetry_space_group_name_H-M   'P 1'
_cell_length_a   10.11730000
_cell_length_b   27.89640000
_cell_length_c   28.02050000
_cell_angle_alpha   90.00000000
_cell_angle_beta   90.00000000
_cell_angle_gamma   90.00000000
_symmetry_Int_Tables_number   1
_chemical_formula_structural   H5(C6N)2
_chemical_formula_sum   'H80 C192 N32'
_cell_volume   7908.40077924
_cell_formula_units_Z   16
loop_
 _symmetry_equiv_pos_site_id
 _symmetry_equiv_pos_as_xyz
  1  'x, y, z'
loop_
 _atom_site_type_symbol
 _atom_site_label
 _atom_site_symmetry_multiplicity
 _atom_site_fract_x
 _atom_site_fract_y
 _atom_site_fract_z
 _atom_site_occupancy
  C  1  1  0.58000800  0.38577200  0.74713450  1
  C  2  1  0.49760600  0.41010150  0.71463950  1
  C  3  1  0.41532800  0.38563800  0.68221500  1
  C  5  1  0.83601000  0.46678400  0.98820700  1
  C  6  1  0.91100200  0.50059900  0.86122650  1
  C  7  1  0.91300800  0.49980600  0.91203700  1
  C  9  1  0.83607000  0.46679100  0.93834100  1
  C  11  1  0.65866200  0.41456800  0.77795100  1
  C  12  1  0.60190000  0.44868350  0.80903150  1
  C  13  1  0.68449600  0.47788800  0.83688050  1
  C  14  1  0.82283600  0.47242850  0.83346200  1
  C  19  1  0.58049200  0.33472950  0.74712150  1
  C  20  1  0.41514000  0.33460400  0.68231450  1
  C  21  1  0.99658600  0.53197200  0.83671700  1
  C  22  1  0.99674600  0.53187100  0.98889700  1
  C  23  1  0.99674400  0.53190000  0.93771600  1
  C  26  1  0.33692000  0.41427900  0.65119200  1
  C  27  1  0.39404800  0.44792900  0.61970900  1
  C  28  1  0.31173800  0.47694000  0.59155100  1
  C  31  1  0.31184800  0.47732700  0.33851450  1
  C  34  1  0.41511000  0.33498750  0.24769550  1
  C  35  1  0.41537000  0.38602650  0.24779900  1
  C  36  1  0.49754800  0.41047200  0.21532250  1
  C  37  1  0.57982200  0.38611400  0.18281100  1
  C  38  1  0.58027400  0.33507500  0.18282850  1
  C  40  1  0.91089800  0.50052700  0.06836800  1
  C  41  1  0.91295600  0.49976700  0.01755500  1
  C  44  1  0.65845000  0.41486000  0.15195100  1
  C  45  1  0.60166600  0.44875300  0.12064550  1
  C  46  1  0.68428200  0.47780400  0.09263900  1
  C  47  1  0.82262800  0.47239800  0.09613300  1
  C  52  1  0.33704000  0.41467400  0.27885100  1
  C  53  1  0.39415200  0.44841300  0.31024950  1
  C  56  1  0.99659600  0.53183200  0.09290500  1
  C  57  1  0.91520200  0.06571500  0.86142700  1
  C  58  1  0.91487600  0.06553900  0.91228900  1
  C  59  1  0.83591200  0.09785900  0.93865700  1
  C  60  1  0.83585000  0.09785900  0.98860800  1
  C  62  1  0.49826400  0.25739200  0.71469950  1
  C  63  1  0.58197600  0.23164100  0.74675500  1
  C  64  1  0.58433400  0.18054100  0.74604900  1
  C  65  1  0.49919000  0.15592900  0.71454800  1
  C  66  1  0.41356600  0.18042300  0.68312900  1
  C  67  1  0.41495200  0.23152600  0.68259300  1
  C  68  1  0.65884200  0.25823200  0.77956000  1
  C  70  1  0.49793800  0.30885150  0.71472450  1
  C  71  1  0.65813400  0.30836600  0.77976650  1
  C  74  1  0.83624600  0.09674400  0.83263750  1
  C  75  1  0.89305000  0.12806500  0.79874200  1
  C  76  1  0.81076600  0.15604350  0.76947700  1
  C  77  1  0.67225000  0.15262700  0.77447850  1
  C  84  1  0.33757000  0.25801500  0.64986850  1
  C  85  1  0.33762000  0.30814400  0.64971050  1
  C  89  1  0.32631200  0.15239200  0.65453950  1
  C  92  1  0.91488200  0.06569300  0.06888200  1
  C  93  1  0.91471800  0.06553200  0.01801500  1
  C  95  1  0.49799200  0.25775700  0.21525500  1
  C  96  1  0.41459800  0.23190250  0.24733850  1
  C  97  1  0.41304600  0.18080100  0.24675700  1
  C  98  1  0.49869000  0.15630000  0.21535300  1
  C  99  1  0.58399400  0.18089400  0.18389750  1
  C  100  1  0.58170800  0.23199250  0.18320700  1
  C  101  1  0.33735600  0.25839900  0.28010050  1
  C  102  1  0.65859400  0.25856900  0.15039900  1
  C  104  1  0.49775400  0.30921750  0.21524800  1
  C  105  1  0.33764000  0.30852700  0.28031800  1
  C  106  1  0.65790800  0.30870100  0.15018650  1
  C  111  1  0.83595000  0.09677600  0.09762100  1
  C  112  1  0.89276400  0.12821400  0.13140700  1
  C  113  1  0.81047600  0.15633600  0.16053800  1
  C  114  1  0.67196000  0.15294100  0.15552000  1
  C  119  1  0.32570600  0.15275600  0.27529300  1
  C  121  1  0.50129000  0.80583000  0.71375850  1
  C  122  1  0.58499000  0.83157900  0.68169550  1
  C  123  1  0.58732200  0.88267750  0.68238900  1
  C  124  1  0.50223000  0.90729250  0.71390700  1
  C  125  1  0.41665400  0.88280250  0.74534450  1
  C  126  1  0.41800800  0.83169900  0.74587250  1
  C  128  1  0.50095400  0.75437100  0.71373550  1
  C  129  1  0.58349800  0.72848950  0.68133650  1
  C  130  1  0.58303200  0.67744750  0.68133450  1
  C  131  1  0.41834800  0.67758900  0.74625300  1
  C  132  1  0.41816600  0.72862150  0.74615050  1
  C  134  1  0.83892550  0.96536700  0.48979300  1
  C  135  1  0.83883950  0.96537450  0.43984050  1
  C  138  1  0.66182350  0.80498300  0.64888400  1
  C  139  1  0.66113550  0.75485000  0.64868700  1
  C  142  1  0.83896350  0.96645050  0.33384300  1
  C  144  1  0.83925150  0.96648050  0.59581200  1
  C  145  1  0.89604950  0.93516250  0.62971200  1
  C  146  1  0.81375950  0.90718100  0.65897300  1
  C  147  1  0.67524950  0.91059150  0.65396500  1
  C  151  1  0.50101400  0.80546800  0.21620950  1
  C  152  1  0.41764200  0.83132200  0.18411700  1
  C  153  1  0.41608400  0.88242400  0.18469500  1
  C  154  1  0.50171600  0.90692550  0.21610400  1
  C  155  1  0.58701600  0.88233300  0.24756350  1
  C  156  1  0.58471600  0.83123500  0.24826150  1
  C  157  1  0.66161150  0.80465950  0.28106550  1
  C  159  1  0.50076800  0.75400850  0.21622050  1
  C  160  1  0.41811600  0.72823750  0.18377650  1
  C  161  1  0.41837200  0.67719900  0.18367450  1
  C  162  1  0.58284400  0.67711300  0.24865900  1
  C  163  1  0.58328800  0.72815150  0.24864100  1
  C  164  1  0.66090750  0.75452800  0.28128650  1
  C  167  1  0.89577750  0.93501650  0.30005350  1
  C  168  1  0.81349350  0.90689250  0.27092150  1
  C  169  1  0.67497150  0.91028700  0.27594050  1
  C  173  1  0.50063400  0.65312200  0.71383300  1
  C  176  1  0.99977800  0.53136400  0.43956200  1
  C  177  1  0.08356600  0.49929550  0.41386300  1
  C  178  1  0.08547200  0.50009850  0.36304650  1
  C  179  1  0.99962000  0.53140350  0.33856450  1
  C  180  1  0.91387150  0.56268900  0.36310750  1
  C  181  1  0.91595150  0.56345800  0.41391650  1
  C  182  1  0.16060800  0.46631500  0.44016900  1
  C  183  1  0.83901350  0.59644100  0.44025450  1
  C  184  1  0.99977800  0.53133200  0.49074250  1
  C  185  1  0.08349600  0.49920950  0.51640200  1
  C  186  1  0.08536200  0.49993700  0.56722200  1
  C  187  1  0.99961600  0.53125700  0.59174200  1
  C  188  1  0.91399550  0.56261200  0.56723300  1
  C  189  1  0.91601950  0.56341850  0.51642350  1
  C  190  1  0.16049400  0.46624850  0.49004500  1
  C  192  1  0.83905350  0.59642300  0.49012150  1
  C  195  1  0.17333400  0.47172000  0.59503750  1
  C  197  1  0.66169350  0.64864050  0.65052850  1
  C  198  1  0.60490950  0.61454500  0.61943250  1
  C  199  1  0.68750150  0.58533900  0.59157950  1
  C  200  1  0.82583950  0.59079100  0.59499850  1
  C  205  1  0.68727350  0.58542850  0.33883600  1
  C  206  1  0.82562150  0.59083100  0.33534550  1
  C  208  1  0.17346800  0.47194800  0.33518500  1
  C  209  1  0.50056000  0.65275350  0.21614700  1
  C  212  1  0.66146150  0.64836850  0.27952200  1
  C  213  1  0.60466350  0.61448100  0.31083150  1
  C  220  1  0.00160800  0.03294850  0.49043550  1
  C  221  1  0.08535800  0.06519300  0.51616300  1
  C  222  1  0.08504000  0.06535800  0.56704000  1
  C  223  1  0.00167600  0.03290900  0.59120800  1
  C  224  1  0.91821150  0.00052300  0.56702400  1
  C  225  1  0.91786950  0.00070450  0.51616300  1
  C  226  1  0.16420200  0.09752000  0.48975400  1
  C  228  1  0.00150400  0.03295950  0.43915150  1
  C  229  1  0.08510000  0.06523250  0.41340250  1
  C  230  1  0.08456400  0.06542600  0.36252550  1
  C  231  1  0.00119200  0.03297000  0.33836500  1
  C  232  1  0.91789350  0.00054800  0.36258300  1
  C  233  1  0.91771950  0.00071150  0.41344550  1
  C  234  1  0.16405400  0.09754700  0.43979050  1
  C  235  1  0.16292200  0.09662200  0.33368250  1
  C  236  1  0.16348200  0.09652100  0.59590100  1
  C  237  1  0.10607400  0.12743200  0.63004750  1
  C  238  1  0.18774400  0.15538900  0.65955350  1
  C  241  1  0.10545800  0.12773500  0.29973600  1
  C  242  1  0.18711800  0.15583400  0.27035400  1
  C  245  1  0.16721400  0.96570250  0.93869700  1
  C  246  1  0.16711600  0.96569250  0.98866300  1
  C  248  1  0.34061600  0.80521300  0.77859550  1
  C  249  1  0.34067400  0.75508600  0.77876050  1
  C  252  1  0.16652400  0.96671350  0.83254450  1
  C  253  1  0.10912600  0.93579750  0.79840100  1
  C  254  1  0.19080800  0.90784150  0.76890000  1
  C  255  1  0.32938200  0.91083750  0.77392150  1
  C  261  1  0.34041800  0.80482500  0.15134950  1
  C  262  1  0.34062400  0.75469700  0.15115900  1
  C  265  1  0.16596000  0.96661600  0.09778600  1
  C  266  1  0.10849400  0.93549400  0.13172700  1
  C  267  1  0.19016000  0.90739200  0.16110150  1
  C  268  1  0.32874400  0.91046900  0.15615900  1
  C  274  1  0.16354800  0.59693700  0.98828700  1
  C  276  1  0.08646200  0.56403000  0.91205700  1
  C  277  1  0.08831000  0.56330900  0.86123400  1
  C  279  1  0.16346000  0.59699300  0.93841150  1
  C  281  1  0.33993800  0.64895350  0.77728000  1
  C  282  1  0.39704800  0.61529100  0.80875700  1
  C  283  1  0.31471400  0.58628400  0.83691100  1
  C  284  1  0.17631200  0.59150600  0.83341550  1
  C  301  1  0.08654000  0.56394400  0.01760500  1
  C  302  1  0.08842400  0.56315350  0.06842500  1
  C  305  1  0.34003200  0.64854800  0.15262950  1
  C  306  1  0.39714400  0.61481600  0.12122400  1
  C  307  1  0.31481800  0.58590900  0.09295300  1
  C  308  1  0.17644000  0.59129500  0.09628700  1
  C  323  1  0.00464200  0.03329500  0.93801500  1
  C  324  1  0.08837400  0.00104700  0.91228800  1
  C  325  1  0.08807200  0.00088200  0.86141050  1
  C  326  1  0.00471200  0.03333400  0.83724200  1
  C  327  1  0.00453200  0.03328400  0.98930050  1
  C  346  1  0.08813200  0.00101100  0.01806200  1
  C  347  1  0.08759800  0.00082100  0.06893900  1
  C  348  1  0.00420800  0.03327000  0.09309600  1
  H  4  1  0.49757800  0.44693400  0.71455900  1
  H  8  1  0.99651200  0.53198300  0.80006300  1
  H  10  1  0.77953400  0.44147100  0.92164100  1
  H  16  1  0.64367800  0.50270450  0.85939500  1
  H  17  1  0.50150400  0.45242600  0.81155050  1
  H  24  1  0.21701000  0.44090450  0.50671650  1
  H  25  1  0.21717600  0.44101200  0.42345250  1
  H  29  1  0.35280800  0.50148600  0.56880500  1
  H  30  1  0.49449000  0.45149400  0.61713900  1
  H  32  1  0.35289800  0.50193050  0.36120500  1
  H  39  1  0.49753800  0.44730500  0.21537600  1
  H  42  1  0.99650800  0.53181950  0.12956050  1
  H  43  1  0.77948600  0.44144200  0.00789800  1
  H  49  1  0.64348200  0.50249100  0.06998400  1
  H  50  1  0.50126400  0.45244500  0.11807250  1
  H  54  1  0.49458400  0.45208500  0.31270350  1
  H  61  1  0.77754400  0.12258600  0.92189700  1
  H  69  1  0.49956800  0.11912100  0.71447550  1
  H  72  1  0.71504400  0.32522500  0.80481350  1
  H  73  1  0.71575800  0.24151900  0.80469050  1
  H  79  1  0.85201200  0.17864850  0.74486050  1
  H  80  1  0.99347400  0.13066400  0.79517850  1
  H  82  1  0.22238600  0.12228500  0.42302800  1
  H  83  1  0.22259800  0.12224700  0.50650250  1
  H  86  1  0.28045000  0.32492400  0.62468700  1
  H  87  1  0.28083600  0.24123900  0.62472650  1
  H  94  1  0.77742800  0.12258200  0.00835800  1
  H  103  1  0.49898800  0.11949200  0.21540850  1
  H  107  1  0.28056000  0.32530700  0.30536750  1
  H  108  1  0.28061000  0.24162100  0.30523900  1
  H  109  1  0.71481800  0.32554900  0.12513150  1
  H  110  1  0.71553800  0.24184300  0.12528350  1
  H  116  1  0.85173000  0.17901600  0.18508750  1
  H  117  1  0.99319200  0.13080200  0.13497450  1
  H  127  1  0.50261000  0.94410100  0.71397700  1
  H  133  1  0.85500750  0.88457550  0.68359200  1
  H  136  1  0.78047150  0.94063350  0.42310300  1
  H  137  1  0.78056950  0.94063450  0.50655250  1
  H  140  1  0.71809750  0.73798750  0.62365750  1
  H  141  1  0.71880950  0.82169550  0.62377150  1
  H  149  1  0.99647600  0.93256650  0.63328100  1
  H  158  1  0.50201600  0.94373450  0.21604700  1
  H  165  1  0.71785950  0.73768050  0.30632950  1
  H  166  1  0.71856150  0.82138650  0.30617750  1
  H  171  1  0.85474350  0.88421350  0.24637150  1
  H  172  1  0.99620400  0.93242800  0.29648500  1
  H  174  1  0.50061000  0.61628900  0.71391900  1
  H  175  1  0.49748000  0.61172100  0.81132850  1
  H  191  1  0.99954200  0.53124250  0.62839500  1
  H  193  1  0.78255550  0.62175600  0.50682200  1
  H  194  1  0.78248750  0.62178100  0.42357750  1
  H  202  1  0.64666950  0.56052950  0.56906000  1
  H  203  1  0.50451400  0.61081000  0.61691100  1
  H  207  1  0.64646350  0.56074100  0.36149250  1
  H  210  1  0.50056000  0.61592200  0.21609700  1
  H  211  1  0.99953200  0.53141450  0.30190950  1
  H  215  1  0.50426000  0.61079400  0.31340450  1
  H  217  1  0.49757000  0.61113800  0.11876850  1
  H  219  1  0.14600600  0.17769300  0.68433600  1
  H  227  1  0.00165600  0.03288400  0.62787400  1
  H  239  1  0.00560000  0.12972800  0.63364850  1
  H  240  1  0.00105400  0.03296650  0.30170250  1
  H  243  1  0.14537400  0.17828100  0.24570400  1
  H  244  1  0.00497800  0.13009000  0.29620650  1
  H  247  1  0.22563400  0.94098350  0.92194900  1
  H  250  1  0.28346000  0.73830650  0.80377200  1
  H  251  1  0.28388200  0.82199300  0.80373750  1
  H  257  1  0.14908200  0.88553450  0.74411700  1
  H  258  1  0.00865400  0.93350100  0.79479650  1
  H  260  1  0.22541200  0.94094400  0.00843700  1
  H  263  1  0.28357600  0.73791700  0.12610050  1
  H  264  1  0.28362800  0.82160300  0.12622350  1
  H  270  1  0.14841600  0.88494250  0.18575150  1
  H  271  1  0.00801200  0.93313650  0.13525650  1
  H  280  1  0.21999600  0.62232950  0.92173800  1
  H  286  1  0.35576400  0.56173200  0.85965650  1
  H  304  1  0.22016800  0.62222400  0.00801600  1
  H  310  1  0.35586200  0.56130900  0.07025900  1
  H  331  1  0.00468000  0.03335600  0.80057900  1
  H  351  1  0.00405800  0.03327700  0.12975900  1
  N  15  1  0.87010400  0.43937750  0.80209800  1
  N  18  1  0.79292000  0.41227500  0.77595550  1
  N  33  1  0.20265400  0.41218750  0.65324150  1
  N  48  1  0.86988000  0.43955900  0.12772100  1
  N  51  1  0.79269800  0.41258900  0.15399600  1
  N  55  1  0.20277400  0.41242600  0.27697950  1
  N  78  1  0.62493600  0.12104100  0.80734650  1
  N  81  1  0.70185200  0.09479000  0.83454400  1
  N  88  1  0.29735600  0.09498000  0.33550600  1
  N  90  1  0.37428800  0.12120750  0.62141450  1
  N  91  1  0.29792200  0.09494600  0.59401350  1
  N  115  1  0.62465800  0.12122200  0.12277800  1
  N  118  1  0.70156400  0.09485100  0.09569400  1
  N  120  1  0.37369000  0.12135100  0.30820800  1
  N  143  1  0.70457550  0.96837250  0.33577000  1
  N  148  1  0.62793950  0.94217650  0.62109350  1
  N  150  1  0.70485750  0.96842950  0.59390250  1
  N  170  1  0.62767350  0.94200250  0.30868650  1
  N  196  1  0.12577200  0.43911950  0.62681600  1
  N  201  1  0.87312350  0.62384000  0.62636450  1
  N  204  1  0.79595350  0.65094200  0.65251450  1
  N  214  1  0.87288150  0.62366100  0.30375100  1
  N  216  1  0.79570750  0.65063150  0.27747350  1
  N  218  1  0.12588800  0.43928200  0.30347950  1
  N  256  1  0.37734000  0.94201800  0.80705400  1
  N  259  1  0.30096600  0.96827950  0.83445050  1
  N  269  1  0.37672800  0.94187400  0.12324350  1
  N  272  1  0.30038200  0.96824900  0.09595100  1
  N  285  1  0.12876600  0.62411600  0.80164200  1
  N  287  1  0.20567400  0.65104650  0.77522250  1
  N  309  1  0.12888000  0.62396050  0.12799400  1
  N  311  1  0.20576800  0.65080850  0.15449950  1
