# generated using pymatgen
data_H26C41(N5O)2
_symmetry_space_group_name_H-M   'P 1'
_cell_length_a   32.88070000
_cell_length_b   37.38920000
_cell_length_c   37.38920000
_cell_angle_alpha   90.00000000
_cell_angle_beta   90.00280000
_cell_angle_gamma   90.00000000
_symmetry_Int_Tables_number   1
_chemical_formula_structural   H26C41(N5O)2
_chemical_formula_sum   'H208 C328 N80 O16'
_cell_volume   45965.64936763
_cell_formula_units_Z   8
loop_
 _symmetry_equiv_pos_site_id
 _symmetry_equiv_pos_as_xyz
  1  'x, y, z'
loop_
 _atom_site_type_symbol
 _atom_site_label
 _atom_site_symmetry_multiplicity
 _atom_site_fract_x
 _atom_site_fract_y
 _atom_site_fract_z
 _atom_site_occupancy
  H  25  1  0.01624800  0.24286000  0.94621000  1
  H  26  1  0.01836100  0.18269300  0.96505300  1
  H  27  1  0.02006000  0.08988900  0.05727900  1
  H  28  1  0.01425800  0.07039800  0.11707800  1
  H  29  1  0.00475900  0.17756400  0.15135200  1
  H  30  1  0.00805300  0.27636300  0.05371300  1
  H  31  1  0.09048600  0.19716300  0.07139000  1
  H  32  1  0.14783500  0.26901600  0.14199300  1
  H  33  1  0.08313900  0.28787200  0.16303800  1
  H  34  1  0.93144300  0.19413800  0.07086300  1
  H  35  1  0.93375400  0.28539800  0.16225500  1
  H  36  1  0.87025500  0.26300200  0.14207900  1
  H  39  1  0.99233000  0.14102800  0.01629300  1
  H  40  1  0.04602100  0.14473400  0.01927900  1
  H  42  1  0.00863100  0.26325800  0.17266600  1
  H  43  1  0.00854900  0.29687200  0.13922500  1
  H  47  1  0.01287400  0.31996700  0.00772000  1
  H  48  1  0.99656600  0.13084100  0.19366900  1
  H  49  1  0.85895100  0.19158800  0.07543700  1
  H  51  1  0.16269300  0.20289200  0.07052400  1
  H  76  1  0.01629300  0.77511500  0.82373100  1
  H  77  1  0.01833500  0.83529200  0.80491300  1
  H  78  1  0.02003700  0.92813200  0.71271200  1
  H  79  1  0.01429400  0.94763500  0.65290900  1
  H  80  1  0.00478700  0.84047800  0.61861200  1
  H  81  1  0.00808100  0.74165300  0.71621600  1
  H  82  1  0.09048600  0.82078800  0.69861800  1
  H  83  1  0.14779900  0.74900000  0.62793100  1
  H  84  1  0.08309200  0.73023000  0.60682100  1
  H  85  1  0.93144600  0.82387200  0.69913500  1
  H  86  1  0.93370600  0.73274100  0.60761700  1
  H  87  1  0.87021900  0.75511400  0.62783900  1
  H  90  1  0.99227500  0.87697000  0.75367500  1
  H  91  1  0.04596900  0.87328500  0.75071400  1
  H  93  1  0.00859100  0.75489500  0.59722700  1
  H  94  1  0.00850300  0.72122200  0.63061100  1
  H  98  1  0.01310300  0.69803900  0.76219200  1
  H  99  1  0.99674900  0.88720000  0.57628400  1
  H  100  1  0.85895700  0.82646900  0.69454500  1
  H  102  1  0.16268900  0.81488000  0.69960800  1
  H  127  1  0.01606800  0.94781700  0.11897100  1
  H  128  1  0.01809700  0.92902300  0.05878400  1
  H  129  1  0.02001500  0.83686200  0.96592500  1
  H  130  1  0.01437900  0.77707200  0.94638900  1
  H  131  1  0.00457400  0.74272300  0.05351100  1
  H  132  1  0.00787700  0.84028800  0.15239100  1
  H  133  1  0.09026600  0.82275900  0.07336700  1
  H  134  1  0.14749000  0.75193700  0.14508000  1
  H  135  1  0.08276200  0.73075700  0.16371100  1
  H  136  1  0.93122100  0.82335300  0.07019900  1
  H  137  1  0.93338300  0.73164700  0.16114500  1
  H  138  1  0.86991700  0.75202800  0.13887500  1
  H  141  1  0.99207400  0.87778600  0.01707500  1
  H  142  1  0.04576800  0.87485700  0.02079500  1
  H  144  1  0.00827200  0.72122200  0.13893400  1
  H  145  1  0.00818400  0.75451000  0.17270000  1
  H  149  1  0.01289100  0.88625100  0.19602100  1
  H  150  1  0.99680300  0.70038400  0.00675400  1
  H  151  1  0.85870400  0.81909500  0.06783000  1
  H  153  1  0.16245800  0.82384000  0.07947800  1
  H  178  1  0.01604100  0.07024400  0.65102000  1
  H  179  1  0.01810600  0.08905200  0.71120600  1
  H  180  1  0.01997100  0.18123400  0.80405200  1
  H  181  1  0.01434300  0.24103200  0.82357000  1
  H  182  1  0.00461600  0.27535800  0.71643500  1
  H  183  1  0.00785800  0.17777000  0.61758300  1
  H  184  1  0.09026900  0.19533000  0.69663000  1
  H  185  1  0.14750000  0.26609700  0.62487200  1
  H  186  1  0.08277100  0.28725200  0.60620300  1
  H  187  1  0.93122400  0.19475900  0.69979900  1
  H  188  1  0.93339200  0.28638000  0.60876700  1
  H  189  1  0.86992400  0.26605800  0.63108900  1
  H  192  1  0.99207400  0.14029100  0.75289700  1
  H  193  1  0.04577000  0.14323400  0.74919500  1
  H  195  1  0.00828400  0.29680500  0.63094800  1
  H  196  1  0.00819000  0.26347700  0.59721900  1
  H  200  1  0.01276000  0.13180100  0.57396100  1
  H  201  1  0.99687600  0.31771800  0.76317500  1
  H  202  1  0.85871300  0.19912600  0.70225300  1
  H  204  1  0.16245600  0.19424700  0.69053600  1
  H  229  1  0.51794800  0.74259700  0.44568300  1
  H  230  1  0.51913100  0.68231000  0.46432500  1
  H  231  1  0.51846800  0.58920200  0.55662700  1
  H  232  1  0.51215700  0.56985200  0.61645200  1
  H  233  1  0.50357200  0.67714000  0.65050900  1
  H  234  1  0.50881200  0.77577000  0.55320900  1
  H  235  1  0.59004500  0.69423800  0.57292400  1
  H  236  1  0.64746200  0.76475900  0.64476500  1
  H  237  1  0.58268500  0.78648400  0.66299800  1
  H  238  1  0.43123200  0.69550300  0.56767500  1
  H  239  1  0.43287700  0.78555600  0.66023600  1
  H  240  1  0.36946600  0.76579900  0.63702900  1
  H  243  1  0.49178100  0.64074700  0.51529800  1
  H  244  1  0.54548400  0.64376900  0.51876700  1
  H  246  1  0.50772000  0.76270200  0.67176400  1
  H  247  1  0.50817300  0.79624100  0.63826800  1
  H  251  1  0.51515600  0.81945900  0.50754300  1
  H  252  1  0.49448100  0.63069000  0.69282300  1
  H  253  1  0.35908900  0.70255100  0.56269700  1
  H  255  1  0.66183200  0.69043200  0.58212200  1
  H  280  1  0.51802400  0.27537400  0.32425500  1
  H  281  1  0.51911900  0.33567200  0.30563700  1
  H  282  1  0.51844100  0.42880800  0.21335900  1
  H  283  1  0.51222400  0.44817200  0.15352700  1
  H  284  1  0.50360800  0.34089300  0.11944800  1
  H  285  1  0.50884200  0.24224000  0.21672100  1
  H  286  1  0.59002400  0.32377300  0.19704800  1
  H  287  1  0.64743700  0.25332600  0.12513900  1
  H  288  1  0.58266100  0.23161100  0.10688900  1
  H  289  1  0.43120700  0.32250000  0.20228600  1
  H  290  1  0.43285300  0.23251800  0.10965500  1
  H  291  1  0.36944500  0.25225600  0.13287100  1
  H  294  1  0.49172000  0.37724800  0.25466800  1
  H  295  1  0.54542600  0.37423900  0.25121900  1
  H  297  1  0.50769900  0.25539000  0.09815100  1
  H  298  1  0.50814900  0.22181700  0.13161400  1
  H  302  1  0.51542700  0.19854600  0.26237400  1
  H  303  1  0.49464600  0.38734500  0.07712300  1
  H  304  1  0.35906800  0.31545500  0.20725500  1
  H  306  1  0.66180800  0.32760000  0.18784300  1
  H  331  1  0.51795100  0.44834900  0.61870900  1
  H  332  1  0.51909500  0.42975500  0.55840300  1
  H  333  1  0.51857500  0.33752000  0.46522900  1
  H  334  1  0.51242800  0.27770300  0.44583800  1
  H  335  1  0.50379700  0.24355400  0.55309100  1
  H  336  1  0.50899500  0.34078300  0.65180100  1
  H  337  1  0.59015500  0.32132800  0.57031100  1
  H  338  1  0.64772000  0.24928700  0.64053400  1
  H  339  1  0.58298300  0.23085000  0.66216600  1
  H  340  1  0.43133800  0.32639900  0.57166800  1
  H  341  1  0.43316900  0.23350200  0.66137300  1
  H  342  1  0.36971200  0.25677300  0.64179000  1
  H  345  1  0.49178700  0.37878300  0.51681500  1
  H  346  1  0.54549600  0.37537600  0.51981300  1
  H  348  1  0.50800000  0.22210300  0.63837000  1
  H  349  1  0.50845900  0.25544200  0.67206600  1
  H  353  1  0.51541200  0.38643500  0.69551500  1
  H  354  1  0.49498600  0.20122600  0.50663000  1
  H  355  1  0.35920800  0.33143800  0.57897700  1
  H  357  1  0.66195400  0.31250200  0.56662000  1
  H  382  1  0.51787800  0.56971600  0.15129200  1
  H  383  1  0.51904000  0.58832500  0.21159600  1
  H  384  1  0.51849900  0.68058200  0.30474900  1
  H  385  1  0.51233400  0.74040100  0.32412400  1
  H  386  1  0.50380600  0.77452900  0.21685400  1
  H  387  1  0.50899500  0.67727600  0.11817600  1
  H  388  1  0.59016100  0.69677600  0.19967500  1
  H  389  1  0.64770800  0.76876200  0.12938700  1
  H  390  1  0.58296800  0.78716600  0.10773200  1
  H  391  1  0.43134400  0.69167900  0.19831000  1
  H  392  1  0.43315100  0.78451000  0.10854000  1
  H  393  1  0.36970300  0.76124400  0.12813700  1
  H  396  1  0.49175300  0.63931900  0.25316500  1
  H  397  1  0.54546600  0.64270700  0.25018200  1
  H  399  1  0.50799100  0.79593900  0.13152800  1
  H  400  1  0.50843800  0.76256500  0.09786500  1
  H  404  1  0.51529300  0.63161000  0.07446800  1
  H  405  1  0.49492500  0.81686200  0.26330800  1
  H  406  1  0.35922000  0.68655700  0.19089900  1
  H  408  1  0.66196600  0.70557600  0.20332600  1
  H  415  1  0.07019700  0.98370700  0.19343200  1
  H  419  1  0.93256800  0.07944700  0.14337400  1
  H  420  1  0.88440900  0.07067000  0.15340000  1
  H  429  1  0.07018500  0.03442700  0.57675000  1
  H  433  1  0.93265600  0.93881200  0.62674500  1
  H  434  1  0.88446400  0.94753100  0.61677000  1
  H  443  1  0.07008200  0.70027500  0.85970100  1
  H  447  1  0.93268100  0.75086400  0.95535900  1
  H  448  1  0.88446100  0.74109900  0.94653600  1
  H  457  1  0.07012500  0.31760500  0.91025000  1
  H  461  1  0.93256500  0.26746500  0.81437700  1
  H  462  1  0.88439700  0.27735300  0.82326000  1
  H  471  1  0.57082400  0.48471000  0.69313900  1
  H  475  1  0.43128900  0.57828800  0.64314800  1
  H  476  1  0.38332800  0.56885400  0.65330700  1
  H  485  1  0.57081800  0.53341900  0.07707300  1
  H  489  1  0.43136500  0.43994800  0.12692900  1
  H  490  1  0.38337700  0.44933000  0.11681200  1
  H  499  1  0.57070200  0.20057600  0.36062100  1
  H  503  1  0.43153900  0.25104600  0.45432600  1
  H  504  1  0.38350500  0.24115800  0.44489400  1
  H  513  1  0.57068400  0.81736700  0.40931700  1
  H  517  1  0.43140500  0.76721100  0.31542300  1
  H  518  1  0.38341000  0.77717100  0.32492600  1
  H  527  1  0.75871200  0.32039200  0.12242400  1
  H  531  1  0.82299300  0.17597200  0.15876600  1
  H  532  1  0.79382700  0.14084100  0.16803200  1
  H  541  1  0.75873400  0.69765100  0.64753300  1
  H  545  1  0.82288400  0.84198700  0.61103800  1
  H  546  1  0.79371500  0.87708000  0.60162500  1
  H  555  1  0.75805900  0.77226300  0.19621400  1
  H  559  1  0.82365600  0.73523100  0.05241900  1
  H  560  1  0.79482500  0.72525500  0.01726500  1
  H  569  1  0.75821700  0.24590900  0.57370400  1
  H  573  1  0.82354700  0.28283300  0.71762500  1
  H  574  1  0.79463600  0.29278500  0.75273000  1
  H  583  1  0.25915600  0.69320800  0.12816100  1
  H  587  1  0.19921400  0.83962800  0.16225700  1
  H  588  1  0.22945000  0.87438400  0.17020100  1
  H  597  1  0.25917200  0.32485100  0.64178000  1
  H  601  1  0.19928700  0.17853000  0.60756400  1
  H  602  1  0.22951200  0.14379500  0.59948500  1
  H  611  1  0.25973300  0.25153300  0.20070500  1
  H  615  1  0.19853900  0.28626500  0.05482000  1
  H  616  1  0.22847300  0.29490900  0.02002800  1
  H  625  1  0.25954200  0.76630700  0.56920800  1
  H  629  1  0.19874100  0.73176200  0.71525500  1
  H  630  1  0.22878100  0.72320600  0.74999900  1
  C  1  1  0.97069700  0.22631600  0.10185100  1
  C  2  1  0.97080300  0.25305700  0.12880000  1
  C  3  1  0.04788500  0.25391700  0.12966900  1
  C  4  1  0.04943800  0.22716300  0.10279100  1
  C  5  1  0.08884200  0.21618700  0.09102700  1
  C  6  1  0.12579300  0.23079200  0.10470900  1
  C  7  1  0.12250900  0.25721200  0.13143600  1
  C  8  1  0.08425900  0.26842300  0.14377300  1
  C  9  1  0.93369300  0.26624200  0.14267300  1
  C  10  1  0.89613300  0.25309500  0.13066200  1
  C  11  1  0.89427800  0.22646100  0.10403500  1
  C  12  1  0.93197200  0.21370800  0.09001600  1
  C  13  1  0.01117700  0.22040100  0.04714200  1
  C  14  1  0.01435300  0.19324800  0.02075500  1
  C  15  1  0.01523500  0.14546700  0.06822900  1
  C  16  1  0.01133500  0.17160300  0.09555000  1
  C  17  1  0.01707600  0.10876800  0.07696900  1
  C  18  1  0.01366700  0.09727000  0.11247200  1
  C  19  1  0.00830600  0.12207300  0.14052600  1
  C  20  1  0.00819600  0.15903600  0.13140700  1
  C  21  1  0.00980000  0.25647300  0.03494200  1
  C  22  1  0.01128400  0.26602200  0.99810500  1
  C  23  1  0.01431800  0.23798300  0.97298000  1
  C  24  1  0.01573000  0.20225500  0.98410600  1
  C  37  1  0.01053400  0.21141500  0.08688300  1
  C  38  1  0.01723600  0.15489500  0.02990400  1
  C  41  1  0.00893200  0.26796300  0.14377800  1
  C  44  1  0.00109200  0.11149200  0.17591700  1
  C  45  1  0.85716500  0.21164200  0.09277100  1
  C  46  1  0.01128300  0.30213800  0.98808300  1
  C  50  1  0.16353100  0.22022100  0.09063200  1
  C  52  1  0.97068200  0.79172900  0.66810100  1
  C  53  1  0.97077600  0.76502900  0.64111200  1
  C  54  1  0.04785600  0.76414900  0.64023800  1
  C  55  1  0.04942200  0.79086500  0.66715500  1
  C  56  1  0.08883100  0.80180100  0.67894600  1
  C  57  1  0.12577100  0.78717400  0.66527000  1
  C  58  1  0.12247800  0.76081400  0.63848400  1
  C  59  1  0.08422200  0.74964200  0.62612300  1
  C  60  1  0.93365700  0.75186700  0.62723000  1
  C  61  1  0.89610300  0.76499900  0.63926900  1
  C  62  1  0.89426000  0.79158500  0.66594200  1
  C  63  1  0.93196300  0.80432600  0.67995900  1
  C  64  1  0.01117100  0.79761300  0.72281100  1
  C  65  1  0.01432800  0.82475700  0.74920700  1
  C  66  1  0.01521300  0.87255700  0.70174900  1
  C  67  1  0.01133500  0.84642700  0.67441700  1
  C  68  1  0.01705400  0.90925800  0.69301700  1
  C  69  1  0.01368700  0.92076400  0.65751400  1
  C  70  1  0.00834500  0.89596500  0.62945000  1
  C  71  1  0.00823300  0.85900000  0.63856200  1
  C  72  1  0.00982300  0.76153600  0.73499400  1
  C  73  1  0.01132000  0.75197400  0.77182800  1
  C  74  1  0.01434200  0.78000400  0.79696400  1
  C  75  1  0.01573200  0.81573600  0.78585400  1
  C  88  1  0.01052500  0.80661300  0.68307200  1
  C  89  1  0.01719500  0.86311600  0.74007300  1
  C  92  1  0.00889600  0.75013900  0.62610700  1
  C  95  1  0.00119800  0.90655100  0.59405200  1
  C  96  1  0.85715600  0.80640700  0.67721900  1
  C  97  1  0.01139600  0.71585700  0.78183400  1
  C  101  1  0.16351200  0.79766900  0.67939600  1
  C  103  1  0.97042300  0.79220000  0.10226200  1
  C  104  1  0.97048700  0.76515700  0.12890700  1
  C  105  1  0.04756700  0.76424500  0.12982600  1
  C  106  1  0.04916500  0.79122300  0.10317500  1
  C  107  1  0.08858800  0.80304200  0.09230800  1
  C  108  1  0.12551100  0.78933500  0.10694200  1
  C  109  1  0.12218400  0.76249600  0.13324500  1
  C  110  1  0.08391500  0.75010200  0.14434300  1
  C  111  1  0.93335600  0.75128400  0.14204400  1
  C  112  1  0.89581100  0.76342400  0.12897700  1
  C  113  1  0.89399800  0.79014300  0.10243200  1
  C  114  1  0.93171700  0.80413400  0.08970300  1
  C  115  1  0.01093900  0.84690500  0.09643300  1
  C  116  1  0.01409400  0.87331400  0.06929900  1
  C  117  1  0.01505200  0.82587300  0.02148600  1
  C  118  1  0.01112900  0.79853300  0.04759700  1
  C  119  1  0.01699600  0.81715900  0.98478600  1
  C  120  1  0.01370200  0.78165700  0.97326100  1
  C  121  1  0.00825100  0.75358700  0.99803200  1
  C  122  1  0.00804400  0.76268000  0.03500200  1
  C  123  1  0.00959800  0.85907500  0.13251400  1
  C  124  1  0.01112200  0.89590600  0.14208900  1
  C  125  1  0.01411600  0.92105200  0.11407000  1
  C  126  1  0.01547500  0.90995600  0.07833200  1
  C  139  1  0.01028500  0.80716900  0.08741400  1
  C  140  1  0.01699400  0.86419400  0.03094000  1
  C  143  1  0.00859100  0.75008600  0.14377000  1
  C  146  1  0.00119200  0.71817600  0.98741900  1
  C  147  1  0.85689200  0.80160300  0.08774400  1
  C  148  1  0.01123600  0.90590100  0.17820800  1
  C  152  1  0.16325900  0.80354500  0.09658800  1
  C  154  1  0.97042900  0.22586700  0.66769500  1
  C  155  1  0.97049300  0.25288500  0.64102400  1
  C  156  1  0.04757400  0.25379100  0.64011000  1
  C  157  1  0.04917100  0.22683900  0.66678900  1
  C  158  1  0.08859300  0.21503600  0.67767800  1
  C  159  1  0.12551600  0.22873000  0.66303400  1
  C  160  1  0.12219200  0.25554200  0.63670500  1
  C  161  1  0.08392400  0.26792800  0.62559400  1
  C  162  1  0.93336200  0.26675400  0.62787700  1
  C  163  1  0.89582000  0.25466000  0.64098600  1
  C  164  1  0.89400400  0.22796100  0.66755000  1
  C  165  1  0.93172300  0.21396400  0.68028000  1
  C  166  1  0.01094200  0.17116400  0.67354300  1
  C  167  1  0.01411200  0.14476000  0.70067900  1
  C  168  1  0.01503800  0.19221000  0.74848400  1
  C  169  1  0.01113000  0.21954600  0.72236700  1
  C  170  1  0.01694900  0.20093200  0.78518500  1
  C  171  1  0.01364200  0.23643700  0.79669900  1
  C  172  1  0.00825100  0.26450600  0.77191600  1
  C  173  1  0.00805000  0.25540000  0.73495100  1
  C  174  1  0.00959100  0.15898700  0.63746300  1
  C  175  1  0.01110100  0.12215400  0.62789600  1
  C  176  1  0.01410700  0.09701100  0.65591800  1
  C  177  1  0.01549800  0.10811600  0.69165300  1
  C  190  1  0.01029000  0.21090100  0.68255100  1
  C  191  1  0.01699600  0.15388700  0.73903800  1
  C  194  1  0.00860100  0.26793300  0.62614700  1
  C  197  1  0.00122200  0.29992400  0.78251800  1
  C  198  1  0.85690700  0.21657200  0.68229800  1
  C  199  1  0.01116400  0.11215400  0.59177900  1
  C  203  1  0.16326500  0.21453700  0.67341800  1
  C  205  1  0.47023000  0.72595900  0.60060000  1
  C  206  1  0.47020000  0.75255200  0.62768300  1
  C  207  1  0.54740600  0.75313500  0.62905300  1
  C  208  1  0.54901500  0.72615100  0.60241700  1
  C  209  1  0.58840900  0.71401400  0.59180300  1
  C  210  1  0.62535500  0.72742700  0.60665700  1
  C  211  1  0.62209400  0.75448600  0.63274200  1
  C  212  1  0.58381300  0.76713600  0.64363600  1
  C  213  1  0.43295300  0.76621400  0.64084000  1
  C  214  1  0.39545400  0.75438400  0.62730500  1
  C  215  1  0.39380500  0.72823500  0.60018800  1
  C  216  1  0.43160600  0.71435900  0.58753300  1
  C  217  1  0.51156100  0.71982000  0.54643700  1
  C  218  1  0.51463300  0.69269800  0.52002300  1
  C  219  1  0.51414300  0.64482800  0.56745900  1
  C  220  1  0.51026300  0.67099100  0.59475000  1
  C  221  1  0.51552100  0.60813000  0.57627400  1
  C  222  1  0.51190500  0.59672100  0.61180300  1
  C  223  1  0.50671100  0.62161300  0.63981400  1
  C  224  1  0.50688100  0.65853800  0.63061300  1
  C  225  1  0.51063100  0.75593800  0.53438000  1
  C  226  1  0.51252200  0.76559800  0.49760700  1
  C  227  1  0.51562200  0.73762500  0.47241000  1
  C  228  1  0.51655200  0.70183100  0.48342100  1
  C  241  1  0.51014400  0.71077800  0.58611100  1
  C  242  1  0.51675000  0.65428300  0.52914800  1
  C  245  1  0.50833500  0.76734000  0.64287100  1
  C  248  1  0.49942700  0.61125200  0.67525400  1
  C  249  1  0.35689900  0.71783900  0.58432300  1
  C  250  1  0.51296300  0.80176900  0.48782100  1
  C  254  1  0.66295400  0.71224900  0.59723300  1
  C  256  1  0.47020900  0.29206600  0.16934200  1
  C  257  1  0.47017500  0.26549500  0.14223700  1
  C  258  1  0.54738200  0.26491200  0.14087700  1
  C  259  1  0.54899400  0.29187600  0.16753500  1
  C  260  1  0.58838800  0.30400500  0.17815900  1
  C  261  1  0.62533600  0.29059700  0.16330900  1
  C  262  1  0.62206700  0.26357600  0.13718400  1
  C  263  1  0.58379200  0.25092400  0.12628500  1
  C  264  1  0.43292900  0.25184800  0.12906200  1
  C  265  1  0.39543200  0.26364000  0.14262900  1
  C  266  1  0.39378100  0.28978200  0.16975500  1
  C  267  1  0.43158100  0.30365500  0.18241600  1
  C  268  1  0.51153100  0.29818800  0.22351300  1
  C  269  1  0.51459100  0.32530500  0.24993800  1
  C  270  1  0.51410400  0.37318800  0.20251300  1
  C  271  1  0.51023500  0.34703400  0.17521600  1
  C  272  1  0.51550300  0.40988900  0.19370700  1
  C  273  1  0.51189900  0.42130600  0.15817900  1
  C  274  1  0.50674700  0.39641900  0.13015800  1
  C  275  1  0.50688400  0.35949200  0.13935100  1
  C  276  1  0.51063700  0.26206700  0.23555800  1
  C  277  1  0.51255900  0.25239300  0.27232500  1
  C  278  1  0.51562200  0.28036200  0.29753300  1
  C  279  1  0.51651300  0.31615800  0.28653600  1
  C  292  1  0.51012000  0.30724100  0.18384200  1
  C  293  1  0.51669800  0.36372300  0.24082300  1
  C  296  1  0.50831300  0.25072300  0.12703800  1
  C  299  1  0.49955700  0.40678300  0.09470100  1
  C  300  1  0.35688100  0.30017000  0.18562700  1
  C  301  1  0.51310600  0.21622100  0.28209800  1
  C  305  1  0.66292700  0.30580500  0.17270200  1
  C  307  1  0.47040400  0.29338400  0.60196400  1
  C  308  1  0.47042500  0.26620400  0.62846100  1
  C  309  1  0.54763400  0.26489200  0.62897500  1
  C  310  1  0.54919100  0.29164000  0.60210100  1
  C  311  1  0.58856400  0.30236600  0.59000900  1
  C  312  1  0.62554300  0.28752700  0.60336400  1
  C  313  1  0.62232800  0.26128500  0.63027600  1
  C  314  1  0.58407500  0.25029100  0.64289500  1
  C  315  1  0.43320500  0.25297400  0.64211100  1
  C  316  1  0.39568500  0.26656000  0.63039700  1
  C  317  1  0.39398200  0.29376400  0.60434100  1
  C  318  1  0.43175200  0.30647400  0.59045400  1
  C  319  1  0.51166200  0.34760300  0.59585500  1
  C  320  1  0.51468200  0.37404400  0.56875100  1
  C  321  1  0.51422900  0.32664500  0.52084400  1
  C  322  1  0.51038400  0.29933000  0.54698500  1
  C  323  1  0.51563400  0.31785900  0.48414100  1
  C  324  1  0.51207200  0.28233600  0.47270700  1
  C  325  1  0.50693600  0.25429300  0.49757500  1
  C  326  1  0.50704500  0.26347100  0.53450500  1
  C  327  1  0.51075500  0.35963300  0.63198000  1
  C  328  1  0.51260800  0.39640100  0.64166700  1
  C  329  1  0.51564900  0.42162200  0.61371300  1
  C  330  1  0.51655200  0.41064000  0.57791100  1
  C  343  1  0.51028700  0.30793400  0.58678000  1
  C  344  1  0.51678300  0.36495000  0.53032800  1
  C  347  1  0.50859300  0.25097300  0.64314400  1
  C  350  1  0.49975500  0.21883500  0.48719200  1
  C  351  1  0.35706000  0.30969100  0.59409900  1
  C  352  1  0.51313400  0.40616300  0.67784100  1
  C  356  1  0.66312400  0.29714200  0.58826000  1
  C  358  1  0.47040000  0.72468500  0.16800000  1
  C  359  1  0.47041600  0.75184800  0.14148700  1
  C  360  1  0.54762500  0.75315900  0.14096000  1
  C  361  1  0.54918800  0.72643200  0.16785800  1
  C  362  1  0.58856100  0.71572800  0.17996700  1
  C  363  1  0.62553700  0.73057000  0.16660700  1
  C  364  1  0.62231900  0.75677200  0.13965800  1
  C  365  1  0.58406300  0.76775100  0.12702900  1
  C  366  1  0.43319300  0.76507400  0.12783900  1
  C  367  1  0.39567600  0.75149300  0.13956000  1
  C  368  1  0.39398200  0.72429200  0.16562200  1
  C  369  1  0.43175200  0.71159300  0.17951300  1
  C  370  1  0.51166500  0.67046900  0.17412300  1
  C  371  1  0.51466000  0.64403400  0.20123400  1
  C  372  1  0.51421900  0.69144900  0.24912800  1
  C  373  1  0.51039000  0.71875600  0.22297900  1
  C  374  1  0.51561800  0.70024300  0.28582900  1
  C  375  1  0.51204800  0.73577200  0.29725500  1
  C  376  1  0.50691700  0.76380600  0.27237600  1
  C  377  1  0.50706000  0.75461900  0.23544900  1
  C  378  1  0.51075800  0.65843400  0.13799900  1
  C  379  1  0.51259500  0.62166400  0.12832200  1
  C  380  1  0.51560900  0.59644500  0.15628400  1
  C  381  1  0.51651900  0.60743500  0.19208100  1
  C  394  1  0.51028700  0.71014100  0.18318800  1
  C  395  1  0.51675900  0.65313800  0.23965600  1
  C  398  1  0.50858100  0.76706400  0.12678400  1
  C  401  1  0.49972800  0.79926300  0.28274800  1
  C  402  1  0.35706000  0.70835500  0.17585100  1
  C  403  1  0.51305800  0.61188800  0.09215200  1
  C  407  1  0.66312400  0.72096500  0.18170800  1
  C  409  1  0.99981700  0.04568200  0.18109600  1
  C  411  1  0.04208500  0.99381400  0.18763400  1
  C  412  1  0.00805600  0.97128100  0.18415400  1
  C  414  1  0.96518600  0.02319200  0.17739100  1
  C  416  1  0.92442400  0.03520600  0.17416200  1
  C  423  1  0.99986300  0.97236100  0.58887600  1
  C  425  1  0.04206800  0.02428200  0.58246400  1
  C  426  1  0.00798900  0.04677100  0.58584100  1
  C  428  1  0.96517400  0.99480900  0.59244300  1
  C  430  1  0.92443900  0.98270700  0.59562400  1
  C  437  1  0.99976900  0.71316600  0.92164100  1
  C  439  1  0.04201300  0.70632500  0.86975300  1
  C  440  1  0.00802900  0.70997800  0.84718900  1
  C  442  1  0.96517400  0.71683300  0.89910400  1
  C  444  1  0.92442400  0.72018200  0.91111600  1
  C  451  1  0.99980500  0.30496300  0.84831200  1
  C  453  1  0.04207700  0.31154500  0.90016300  1
  C  454  1  0.00807700  0.30797100  0.92272500  1
  C  456  1  0.96518300  0.30124000  0.87078800  1
  C  458  1  0.92442400  0.29804300  0.85876400  1
  C  465  1  0.49922900  0.54557200  0.68084400  1
  C  467  1  0.54250400  0.49439400  0.68740100  1
  C  468  1  0.50889700  0.47136600  0.68401600  1
  C  470  1  0.46501100  0.52258200  0.67724800  1
  C  472  1  0.42403000  0.53401000  0.67406900  1
  C  479  1  0.49927500  0.47246300  0.08912400  1
  C  481  1  0.54249100  0.52369700  0.08271600  1
  C  482  1  0.50883000  0.54667900  0.08598900  1
  C  484  1  0.46500200  0.49541100  0.09257300  1
  C  486  1  0.42404200  0.48389400  0.09569300  1
  C  493  1  0.49927200  0.21341600  0.42154400  1
  C  495  1  0.54244000  0.20656100  0.37028800  1
  C  496  1  0.50883600  0.21011000  0.34727700  1
  C  498  1  0.46505400  0.21696800  0.39855500  1
  C  500  1  0.42410300  0.22026400  0.41003300  1
  C  507  1  0.49924700  0.80470900  0.34840800  1
  C  509  1  0.54244600  0.81134400  0.39961700  1
  C  510  1  0.50883900  0.80783800  0.42263600  1
  C  512  1  0.46501100  0.80106300  0.37134400  1
  C  514  1  0.42405100  0.79787800  0.35986600  1
  C  521  1  0.79369900  0.23749700  0.12135900  1
  C  523  1  0.75904400  0.29357700  0.12770800  1
  C  524  1  0.72732600  0.27737200  0.14726700  1
  C  526  1  0.76251100  0.22097200  0.14197600  1
  C  528  1  0.76220400  0.18437000  0.15195900  1
  C  535  1  0.79368400  0.78056000  0.64864400  1
  C  537  1  0.75905600  0.72446900  0.64225800  1
  C  538  1  0.72733800  0.74067400  0.62269500  1
  C  540  1  0.76250200  0.79708100  0.62801100  1
  C  542  1  0.76218600  0.83370400  0.61808800  1
  C  549  1  0.79359600  0.77279300  0.11348100  1
  C  551  1  0.75861800  0.76670600  0.16945600  1
  C  552  1  0.72720800  0.74672100  0.15329500  1
  C  554  1  0.76276000  0.75171700  0.09703300  1
  C  556  1  0.76277300  0.74143400  0.06051600  1
  C  563  1  0.79351700  0.24525300  0.65649100  1
  C  565  1  0.75871800  0.25142400  0.60047100  1
  C  566  1  0.72722900  0.27133800  0.61660000  1
  C  568  1  0.76267500  0.26631700  0.67292800  1
  C  570  1  0.76264200  0.27661200  0.70944100  1
  C  577  1  0.22616500  0.77669800  0.12577800  1
  C  579  1  0.25955600  0.72013100  0.13287400  1
  C  580  1  0.29208500  0.73616500  0.15153600  1
  C  582  1  0.25817200  0.79308200  0.14552100  1
  C  584  1  0.25962000  0.82989000  0.15463000  1
  C  591  1  0.22617800  0.24136400  0.64422800  1
  C  593  1  0.25956900  0.29792600  0.63708600  1
  C  594  1  0.29208900  0.28187800  0.61842700  1
  C  596  1  0.25816900  0.22496700  0.62447800  1
  C  598  1  0.25960500  0.18813800  0.61543500  1
  C  605  1  0.22623600  0.24967000  0.11734300  1
  C  607  1  0.25991400  0.25652400  0.17383300  1
  C  608  1  0.29215800  0.27559300  0.15782900  1
  C  610  1  0.25791100  0.26986100  0.10102300  1
  C  612  1  0.25905800  0.27925700  0.06428000  1
  C  619  1  0.22632700  0.76835600  0.65262400  1
  C  621  1  0.25980000  0.76138600  0.59609300  1
  C  622  1  0.29215300  0.74243700  0.61207200  1
  C  624  1  0.25804100  0.74822200  0.66894500  1
  C  626  1  0.25926500  0.73885000  0.70569100  1
  N  410  1  0.03642100  0.02977300  0.18691800  1
  N  413  1  0.97120500  0.98715400  0.18002000  1
  N  418  1  0.91313400  0.06518200  0.15654700  1
  N  421  1  0.99753900  0.08005400  0.18967500  1
  N  422  1  0.01021900  0.93703600  0.19292400  1
  N  424  1  0.03646200  0.98831500  0.58316800  1
  N  427  1  0.97114700  0.03085500  0.58985700  1
  N  432  1  0.91320700  0.95265500  0.61315200  1
  N  435  1  0.99765200  0.93798800  0.58029100  1
  N  436  1  0.01011800  0.08101900  0.57706600  1
  N  438  1  0.03631000  0.70707100  0.90570500  1
  N  441  1  0.97119900  0.71419900  0.86306700  1
  N  446  1  0.91318300  0.73770000  0.94116700  1
  N  449  1  0.99762100  0.70443900  0.95597200  1
  N  450  1  0.01028900  0.70114400  0.81296800  1
  N  452  1  0.03638900  0.31091900  0.86420600  1
  N  455  1  0.97123200  0.30385800  0.90682000  1
  N  460  1  0.91312500  0.28052200  0.82873300  1
  N  463  1  0.99767300  0.31367100  0.81396000  1
  N  464  1  0.01020800  0.31683800  0.95694000  1
  N  466  1  0.53615600  0.53025200  0.68662000  1
  N  469  1  0.47172300  0.48664900  0.67991700  1
  N  474  1  0.41215100  0.56378100  0.65640500  1
  N  477  1  0.49628500  0.57991400  0.68928700  1
  N  478  1  0.51181400  0.43718000  0.69275700  1
  N  480  1  0.53620200  0.48782800  0.08347500  1
  N  483  1  0.47166300  0.53135200  0.08995600  1
  N  488  1  0.41221100  0.45404000  0.11325400  1
  N  491  1  0.49640100  0.43812100  0.08067200  1
  N  492  1  0.51171300  0.58086900  0.07724500  1
  N  494  1  0.53611700  0.20737200  0.40614900  1
  N  497  1  0.47170800  0.21429400  0.36261400  1
  N  502  1  0.41231500  0.23781200  0.43990200  1
  N  505  1  0.49652500  0.20482600  0.45585100  1
  N  506  1  0.51178600  0.20130700  0.31311500  1
  N  508  1  0.53612900  0.81064900  0.36375400  1
  N  511  1  0.47169900  0.80372400  0.40728000  1
  N  516  1  0.41222300  0.78031900  0.33001700  1
  N  519  1  0.49648600  0.81327800  0.31408500  1
  N  520  1  0.51166200  0.81667200  0.45679600  1
  N  522  1  0.78990100  0.27310800  0.11466300  1
  N  525  1  0.73121600  0.24183100  0.15409300  1
  N  530  1  0.79612900  0.16512500  0.15899800  1
  N  533  1  0.82017700  0.21827200  0.10231600  1
  N  534  1  0.69962000  0.29758100  0.16359300  1
  N  536  1  0.78990100  0.74494300  0.65532200  1
  N  539  1  0.73121600  0.77621600  0.61588300  1
  N  544  1  0.79611100  0.85300600  0.61119000  1
  N  547  1  0.82016200  0.79978700  0.66768600  1
  N  548  1  0.69964700  0.72046200  0.60635200  1
  N  550  1  0.78942900  0.77984600  0.14899800  1
  N  553  1  0.73149300  0.73950500  0.11787000  1
  N  558  1  0.79688700  0.73468800  0.04141700  1
  N  561  1  0.81987900  0.79206900  0.09429100  1
  N  562  1  0.69985700  0.73006700  0.17360300  1
  N  564  1  0.78950600  0.23827000  0.62095100  1
  N  567  1  0.73144400  0.27852400  0.65204600  1
  N  572  1  0.79672900  0.28348300  0.72852800  1
  N  575  1  0.81989700  0.22608800  0.67570400  1
  N  576  1  0.69985700  0.28800800  0.59633100  1
  N  578  1  0.22891600  0.74087700  0.11986100  1
  N  581  1  0.28921400  0.77191600  0.15759000  1
  N  586  1  0.22634300  0.84995200  0.16178700  1
  N  589  1  0.19978300  0.79608000  0.10682100  1
  N  590  1  0.31988100  0.71580600  0.16759600  1
  N  592  1  0.22893200  0.27719000  0.65012000  1
  N  595  1  0.28921100  0.24612300  0.61239500  1
  N  600  1  0.22631600  0.16803300  0.60842400  1
  N  603  1  0.19979100  0.22199600  0.66319000  1
  N  604  1  0.31988100  0.30222100  0.60234800  1
  N  606  1  0.22932900  0.24340500  0.15309000  1
  N  609  1  0.28892500  0.28202000  0.12216700  1
  N  614  1  0.22559200  0.28610700  0.04434800  1
  N  617  1  0.20008600  0.23044300  0.09799600  1
  N  618  1  0.31967100  0.29192400  0.17825900  1
  N  620  1  0.22923400  0.77451300  0.61685400  1
  N  623  1  0.28902100  0.73607400  0.64775900  1
  N  628  1  0.22584800  0.73185300  0.72562600  1
  N  631  1  0.20005400  0.78745000  0.67198600  1
  N  632  1  0.31969200  0.72610000  0.59167900  1
  O  417  1  0.89424500  0.01360100  0.18600500  1
  O  431  1  0.89421700  0.00437300  0.58396700  1
  O  445  1  0.89418400  0.70860300  0.88942900  1
  O  459  1  0.89422300  0.30965600  0.88047200  1
  O  473  1  0.39428000  0.51202800  0.68605500  1
  O  487  1  0.39425600  0.50594300  0.08389200  1
  O  501  1  0.39425900  0.20855600  0.38799500  1
  O  515  1  0.39423700  0.80958400  0.38193200  1
  O  529  1  0.72599400  0.16873200  0.15921200  1
  O  543  1  0.72599700  0.84924300  0.61054200  1
  O  557  1  0.72677300  0.73350100  0.04483400  1
  O  571  1  0.72661500  0.28450700  0.72509400  1
  O  585  1  0.29636400  0.84498200  0.16088100  1
  O  599  1  0.29632700  0.17312000  0.60889700  1
  O  613  1  0.29561700  0.28618700  0.04913500  1
  O  627  1  0.29586500  0.73201400  0.72080400  1
