# generated using pymatgen
data_ZnH4C6N3O2
_symmetry_space_group_name_H-M   'P 1'
_cell_length_a   8.03863000
_cell_length_b   9.90023000
_cell_length_c   13.21000000
_cell_angle_alpha   110.63102000
_cell_angle_beta   106.21976000
_cell_angle_gamma   93.96668000
_symmetry_Int_Tables_number   1
_chemical_formula_structural   ZnH4C6N3O2
_chemical_formula_sum   'Zn4 H16 C24 N12 O8'
_cell_volume   928.14983976
_cell_formula_units_Z   4
loop_
 _symmetry_equiv_pos_site_id
 _symmetry_equiv_pos_as_xyz
  1  'x, y, z'
loop_
 _atom_site_type_symbol
 _atom_site_label
 _atom_site_symmetry_multiplicity
 _atom_site_fract_x
 _atom_site_fract_y
 _atom_site_fract_z
 _atom_site_occupancy
  Zn  Zn1  1  0.37936000  0.13247000  0.75925000  1.0
  Zn  Zn2  1  0.62065000  0.86753000  0.24075000  1.0
  Zn  Zn3  1  0.00000000  0.50000000  0.50000000  1.0
  Zn  Zn4  1  0.50000000  0.50000000  0.50000000  1.0
  H  H1  1  0.07993000  0.85001000  0.62457000  1.0
  H  H2  1  0.60680000  0.85863000  0.63955000  1.0
  H  H3  1  0.02627000  0.26710000  0.62670000  1.0
  H  H4  1  0.53809000  0.26109000  0.61182000  1.0
  H  H5  1  0.84169000  0.05531000  0.83242000  1.0
  H  H6  1  0.32196000  0.99760000  0.04499000  1.0
  H  H7  1  0.98611000  0.28006000  0.82974000  1.0
  H  H8  1  0.72249000  0.55497000  0.04177000  1.0
  H  H9  1  0.92007000  0.14999000  0.37543000  1.0
  H  H10  1  0.39320000  0.14137000  0.36045000  1.0
  H  H11  1  0.97374000  0.73290000  0.37329000  1.0
  H  H12  1  0.46192000  0.73891000  0.38818000  1.0
  H  H13  1  0.15831000  0.94469000  0.16758000  1.0
  H  H14  1  0.67805000  0.00240000  0.95501000  1.0
  H  H15  1  0.01390000  0.71994000  0.17026000  1.0
  H  H16  1  0.27752000  0.44503000  0.95823000  1.0
  C  C1  1  0.19919000  0.81416000  0.61109000  1.0
  C  C2  1  0.46771000  0.81975000  0.62007000  1.0
  C  C3  1  0.14615000  0.28728000  0.60781000  1.0
  C  C4  1  0.40551000  0.28380000  0.59871000  1.0
  C  C5  1  0.19038000  0.06097000  0.86075000  1.0
  C  C6  1  0.09093000  0.02771000  0.93130000  1.0
  C  C7  1  0.90923000  0.02846000  0.90459000  1.0
  C  C8  1  0.18151000  0.99889000  0.02686000  1.0
  C  C9  1  0.99310000  0.37780000  0.90330000  1.0
  C  C10  1  0.84486000  0.53250000  0.02490000  1.0
  C  C11  1  0.83783000  0.40965000  0.92792000  1.0
  C  C12  1  0.66558000  0.31007000  0.85487000  1.0
  C  C13  1  0.80081000  0.18584000  0.38891000  1.0
  C  C14  1  0.53229000  0.18025000  0.37993000  1.0
  C  C15  1  0.85385000  0.71272000  0.39219000  1.0
  C  C16  1  0.59449000  0.71620000  0.40128000  1.0
  C  C17  1  0.80963000  0.93902000  0.13925000  1.0
  C  C18  1  0.90908000  0.97229000  0.06870000  1.0
  C  C19  1  0.09077000  0.97154000  0.09540000  1.0
  C  C20  1  0.81849000  0.00110000  0.97314000  1.0
  C  C21  1  0.00690000  0.62220000  0.09670000  1.0
  C  C22  1  0.15515000  0.46750000  0.97510000  1.0
  C  C23  1  0.16217000  0.59035000  0.07208000  1.0
  C  C24  1  0.33443000  0.68993000  0.14513000  1.0
  N  N1  1  0.21146000  0.67524000  0.55487000  1.0
  N  N2  1  0.38658000  0.67856000  0.56084000  1.0
  N  N3  1  0.35507000  0.90711000  0.65216000  1.0
  N  N4  1  0.16975000  0.37309000  0.55167000  1.0
  N  N5  1  0.33879000  0.37048000  0.54564000  1.0
  N  N6  1  0.28964000  0.22949000  0.63786000  1.0
  N  N7  1  0.78855000  0.32476000  0.44513000  1.0
  N  N8  1  0.61343000  0.32144000  0.43916000  1.0
  N  N9  1  0.64493000  0.09289000  0.34784000  1.0
  N  N10  1  0.83026000  0.62691000  0.44833000  1.0
  N  N11  1  0.66121000  0.62952000  0.45436000  1.0
  N  N12  1  0.71037000  0.77051000  0.36214000  1.0
  O  O1  1  0.10887000  0.07946000  0.76895000  1.0
  O  O2  1  0.35792000  0.07185000  0.89287000  1.0
  O  O3  1  0.65802000  0.19250000  0.76896000  1.0
  O  O4  1  0.52628000  0.34001000  0.87953000  1.0
  O  O5  1  0.89113000  0.92054000  0.23105000  1.0
  O  O6  1  0.64208000  0.92815000  0.10713000  1.0
  O  O7  1  0.34198000  0.80750000  0.23104000  1.0
  O  O8  1  0.47372000  0.65999000  0.12046000  1.0
