# generated using pymatgen
data_NiHC4O3
_symmetry_space_group_name_H-M   'P 1'
_cell_length_a   6.77499000
_cell_length_b   15.09436316
_cell_length_c   15.10892000
_cell_angle_alpha   117.77260966
_cell_angle_beta   98.57262000
_cell_angle_gamma   98.64270236
_symmetry_Int_Tables_number   1
_chemical_formula_structural   NiHC4O3
_chemical_formula_sum   'Ni6 H6 C24 O18'
_cell_volume   1308.51098067
_cell_formula_units_Z   6
loop_
 _symmetry_equiv_pos_site_id
 _symmetry_equiv_pos_as_xyz
  1  'x, y, z'
loop_
 _atom_site_type_symbol
 _atom_site_label
 _atom_site_symmetry_multiplicity
 _atom_site_fract_x
 _atom_site_fract_y
 _atom_site_fract_z
 _atom_site_occupancy
  Ni  Ni1  1  0.70534000  0.73131000  0.32345000  1.0
  Ni  Ni2  1  0.38002000  0.67637000  0.40752000  1.0
  Ni  Ni3  1  0.97172000  0.59185000  0.26817000  1.0
  Ni  Ni4  1  0.29465000  0.26869000  0.67655000  1.0
  Ni  Ni5  1  0.61998000  0.32363000  0.59249000  1.0
  Ni  Ni6  1  0.02828000  0.40815000  0.73183000  1.0
  H  H1  1  0.85223000  0.97950000  0.53849000  1.0
  H  H2  1  0.31362000  0.46194000  0.44057000  1.0
  H  H3  1  0.87295000  0.55913000  0.02050000  1.0
  H  H4  1  0.14777000  0.02050000  0.46151000  1.0
  H  H5  1  0.68638000  0.53806000  0.55944000  1.0
  H  H6  1  0.12704000  0.44086000  0.97949000  1.0
  C  C1  1  0.85914000  0.17386000  0.60529000  1.0
  C  C2  1  0.66949000  0.08773000  0.55143000  1.0
  C  C3  1  0.53398000  0.89888000  0.46997000  1.0
  C  C4  1  0.69716000  0.98836000  0.52148000  1.0
  C  C5  1  0.25531000  0.39610000  0.56967000  1.0
  C  C6  1  0.11938000  0.44932000  0.53668000  1.0
  C  C7  1  0.06274000  0.52963000  0.42864000  1.0
  C  C8  1  0.17577000  0.47871000  0.46676000  1.0
  C  C9  1  0.68493000  0.43033000  0.82615000  1.0
  C  C10  1  0.58233000  0.46323000  0.91253000  1.0
  C  C11  1  0.63445000  0.57124000  0.10078000  1.0
  C  C12  1  0.70905000  0.53306000  0.01166000  1.0
  C  C13  1  0.14086000  0.82614000  0.39472000  1.0
  C  C14  1  0.33051000  0.91227000  0.44857000  1.0
  C  C15  1  0.46602000  0.10112000  0.53004000  1.0
  C  C16  1  0.30284000  0.01164000  0.47852000  1.0
  C  C17  1  0.74469000  0.60390000  0.43033000  1.0
  C  C18  1  0.88062000  0.55068000  0.46332000  1.0
  C  C19  1  0.93726000  0.47037000  0.57137000  1.0
  C  C20  1  0.82423000  0.52129000  0.53324000  1.0
  C  C21  1  0.31507000  0.56967000  0.17385000  1.0
  C  C22  1  0.41767000  0.53677000  0.08747000  1.0
  C  C23  1  0.36555000  0.42876000  0.89922000  1.0
  C  C24  1  0.29095000  0.46694000  0.98834000  1.0
  O  O1  1  0.03424000  0.15643000  0.62271000  1.0
  O  O2  1  0.84090000  0.26687000  0.63293000  1.0
  O  O3  1  0.58235000  0.80774000  0.44614000  1.0
  O  O4  1  0.41473000  0.37987000  0.53619000  1.0
  O  O5  1  0.20647000  0.36729000  0.63385000  1.0
  O  O6  1  0.13405000  0.55352000  0.36126000  1.0
  O  O7  1  0.87804000  0.46356000  0.84345000  1.0
  O  O8  1  0.57142000  0.36688000  0.73321000  1.0
  O  O9  1  0.77309000  0.63861000  0.19189000  1.0
  O  O10  1  0.96576000  0.84357000  0.37730000  1.0
  O  O11  1  0.15910000  0.73313000  0.36707000  1.0
  O  O12  1  0.41764000  0.19226000  0.55386000  1.0
  O  O13  1  0.58525000  0.62012000  0.46380000  1.0
  O  O14  1  0.79353000  0.63271000  0.36616000  1.0
  O  O15  1  0.86594000  0.44647000  0.63873000  1.0
  O  O16  1  0.12196000  0.53644000  0.15655000  1.0
  O  O17  1  0.42858000  0.63312000  0.26679000  1.0
  O  O18  1  0.22690000  0.36138000  0.80810000  1.0
