# generated using pymatgen
data_H6C12N5O4
_symmetry_space_group_name_H-M   'P 1'
_cell_length_a   15.10790000
_cell_length_b   15.10790000
_cell_length_c   30.21580000
_cell_angle_alpha   90.00000000
_cell_angle_beta   90.00000000
_cell_angle_gamma   90.00000000
_symmetry_Int_Tables_number   1
_chemical_formula_structural   H6C12N5O4
_chemical_formula_sum   'H24 C48 N20 O16'
_cell_volume   6896.71532933
_cell_formula_units_Z   4
loop_
 _symmetry_equiv_pos_site_id
 _symmetry_equiv_pos_as_xyz
  1  'x, y, z'
loop_
 _atom_site_type_symbol
 _atom_site_label
 _atom_site_symmetry_multiplicity
 _atom_site_fract_x
 _atom_site_fract_y
 _atom_site_fract_z
 _atom_site_occupancy
  C  1  1  0.99183400  0.93851100  0.02399500  1
  C  2  1  0.02903200  0.97284400  0.06376000  1
  C  3  1  0.05981000  0.91878600  0.09884100  1
  C  4  1  0.05288900  0.82611200  0.09284800  1
  C  5  1  0.01247300  0.78663600  0.05546100  1
  C  6  1  0.98293100  0.84503000  0.02187100  1
  C  10  1  0.96423200  0.99410400  0.98796800  1
  C  11  1  0.94349800  0.08479200  0.99436500  1
  C  12  1  0.91996400  0.14326300  0.95964800  1
  C  13  1  0.91342700  0.10579900  0.91676300  1
  C  14  1  0.93190800  0.01590700  0.90724200  1
  C  15  1  0.95810700  0.96265300  0.94366300  1
  C  19  1  0.93079900  0.98149800  0.86315200  1
  C  20  1  0.90770200  0.23623800  0.96562500  1
  C  21  1  0.00082700  0.69296300  0.05367300  1
  C  22  1  0.09362700  0.95293700  0.13947600  1
  C  27  1  0.05690700  0.99933300  0.50651000  1
  C  28  1  0.02925900  0.98745500  0.55127800  1
  C  29  1  0.08419000  0.95269200  0.58522800  1
  C  30  1  0.17050900  0.92677900  0.57223400  1
  C  31  1  0.20500700  0.94145600  0.52937900  1
  C  32  1  0.14605100  0.97581300  0.49734000  1
  C  36  1  0.99980300  0.03494500  0.47277000  1
  C  37  1  0.90612700  0.03327500  0.47712800  1
  C  38  1  0.84681700  0.07086400  0.44598900  1
  C  39  1  0.88545200  0.11459800  0.40931900  1
  C  40  1  0.97717300  0.11149100  0.40015900  1
  C  41  1  0.03226400  0.07213800  0.43256900  1
  C  45  1  0.00818900  0.14001300  0.35796200  1
  C  46  1  0.75278600  0.06324000  0.44880900  1
  C  47  1  0.29659400  0.92675500  0.52095000  1
  C  48  1  0.05867400  0.94538800  0.63070400  1
  C  53  1  0.95891100  0.97753000  0.69318100  1
  C  55  1  0.88309900  0.06242600  0.74909600  1
  C  56  1  0.91332900  0.00564800  0.78301500  1
  C  58  1  0.98228300  0.91525100  0.72655800  1
  C  67  1  0.08485700  0.06191700  0.19934300  1
  C  69  1  0.14338900  0.03122500  0.27212600  1
  C  70  1  0.08847700  0.09613700  0.29152100  1
  C  72  1  0.03842500  0.13491700  0.21774400  1
  C  81  1  0.93080900  0.37231700  0.00867400  1
  C  83  1  0.93112400  0.51685800  0.97502400  1
  C  84  1  0.95608400  0.55723500  0.01523700  1
  C  86  1  0.95289700  0.41269300  0.04965400  1
  C  95  1  0.61813700  0.99532500  0.47953100  1
  C  97  1  0.47241000  0.02675000  0.45126800  1
  C  98  1  0.43268900  0.97222800  0.48355600  1
  C  100  1  0.57898900  0.93784200  0.51114400  1
  H  7  1  0.04175500  0.03894900  0.06585600  1
  H  8  1  0.94722800  0.81937400  0.99643300  1
  H  9  1  0.07370500  0.78578900  0.11793300  1
  H  16  1  0.94080700  0.10761500  0.02592600  1
  H  17  1  0.90092500  0.14750100  0.89109800  1
  H  18  1  0.97740400  0.89930600  0.93712700  1
  H  33  1  0.96797200  0.00858200  0.56002900  1
  H  34  1  0.16716000  0.97631900  0.46538600  1
  H  35  1  0.21252100  0.90255900  0.59579800  1
  H  42  1  0.88008100  0.00120800  0.50353800  1
  H  43  1  0.84445100  0.14004800  0.38560000  1
  H  44  1  0.09876600  0.07829900  0.42796900  1
  H  59  1  0.84763700  0.11831200  0.75604600  1
  H  64  1  0.86610800  0.07923200  0.83184100  1
  H  66  1  0.94800900  0.01759400  0.63092600  1
  H  73  1  0.18001400  0.98886800  0.29108700  1
  H  78  1  0.11198200  0.05746100  0.35347100  1
  H  80  1  0.03395000  0.07115100  0.13848100  1
  H  87  1  0.92316800  0.55281900  0.94666100  1
  H  92  1  0.96228300  0.67860700  0.99043000  1
  H  94  1  0.94028800  0.24836900  0.02964000  1
  H  101  1  0.43538300  0.06176600  0.42903400  1
  H  106  1  0.30954300  0.00411800  0.46719600  1
  H  108  1  0.74240500  0.97433300  0.49771400  1
  N  54  1  0.90784500  0.04683200  0.70672400  1
  N  57  1  0.95947300  0.93344300  0.76929700  1
  N  60  1  0.01987400  0.83209600  0.71682400  1
  N  63  1  0.89989900  0.02568900  0.82663500  1
  N  65  1  0.98292800  0.97829500  0.64940600  1
  N  68  1  0.13622200  0.01520500  0.22815300  1
  N  71  1  0.04042000  0.14575300  0.26254600  1
  N  74  1  0.98389100  0.18988200  0.19168400  1
  N  77  1  0.07726700  0.09980300  0.33649700  1
  N  79  1  0.07248000  0.03445500  0.15647700  1
  N  82  1  0.92092700  0.42793000  0.97353800  1
  N  85  1  0.96462900  0.50202600  0.05054200  1
  N  88  1  0.96430200  0.36284500  0.08870300  1
  N  91  1  0.97099300  0.64627400  0.01780300  1
  N  93  1  0.92509400  0.28244600  0.00368700  1
  N  96  1  0.56145600  0.03627500  0.45108200  1
  N  99  1  0.48922200  0.93036600  0.51163700  1
  N  102  1  0.63002900  0.89088700  0.54237600  1
  N  105  1  0.34280200  0.96729700  0.48764300  1
  N  107  1  0.70754900  0.00919500  0.47736700  1
  O  23  1  0.96437100  0.89914700  0.85677100  1
  O  24  1  0.02293500  0.64607500  0.09040400  1
  O  25  1  0.13902800  0.89551300  0.16557400  1
  O  26  1  0.88034500  0.28339800  0.92988200  1
  O  49  1  0.95488600  0.19520300  0.33451700  1
  O  50  1  0.34261600  0.87928700  0.55141400  1
  O  51  1  0.12221000  0.91796500  0.65930500  1
  O  52  1  0.70446400  0.11089000  0.41932100  1
  O  61  1  0.08856400  0.81955900  0.73945800  1
  O  62  1  0.96619100  0.77130700  0.72595900  1
  O  75  1  0.00781200  0.26910000  0.19547300  1
  O  76  1  0.90466100  0.18440200  0.20397900  1
  O  89  1  0.04133200  0.37258100  0.10353800  1
  O  90  1  0.91068100  0.38791900  0.11788100  1
  O  103  1  0.60856500  0.91261300  0.58103400  1
  O  104  1  0.61767400  0.80910800  0.53822900  1
