# generated using pymatgen
data_Cr3H13C31O19
_symmetry_space_group_name_H-M   'P 1'
_cell_length_a   11.09065000
_cell_length_b   18.76569000
_cell_length_c   18.83382000
_cell_angle_alpha   89.59452000
_cell_angle_beta   90.04457000
_cell_angle_gamma   89.73342000
_symmetry_Int_Tables_number   1
_chemical_formula_structural   Cr3H13C31O19
_chemical_formula_sum   'Cr12 H52 C124 O76'
_cell_volume   3919.62242849
_cell_formula_units_Z   4
loop_
 _symmetry_equiv_pos_site_id
 _symmetry_equiv_pos_as_xyz
  1  'x, y, z'
loop_
 _atom_site_type_symbol
 _atom_site_label
 _atom_site_symmetry_multiplicity
 _atom_site_fract_x
 _atom_site_fract_y
 _atom_site_fract_z
 _atom_site_occupancy
  Cr  Cr0  1  0.83052000  0.77195000  0.75010000  1
  Cr  Cr1  1  0.83052000  0.22805000  0.24990000  1
  Cr  Cr2  1  0.33052000  0.27195000  0.75010000  1
  Cr  Cr3  1  0.33052000  0.72805000  0.24990000  1
  Cr  Cr4  1  0.67666000  0.61493000  0.74917000  1
  Cr  Cr5  1  0.67666000  0.38507000  0.25083000  1
  Cr  Cr6  1  0.17666000  0.11493000  0.74917000  1
  Cr  Cr7  1  0.17666000  0.88507000  0.25083000  1
  Cr  Cr8  1  0.98938000  0.61659000  0.75061000  1
  Cr  Cr9  1  0.98938000  0.38341000  0.24939000  1
  Cr  Cr10  1  0.48938000  0.11659000  0.75061000  1
  Cr  Cr11  1  0.48938000  0.88341000  0.24939000  1
  H  H12  1  0.54569000  0.46792000  0.43796000  1
  H  H13  1  0.65251000  0.41004000  0.57515000  1
  H  H14  1  0.04278000  0.97972000  0.43696000  1
  H  H15  1  0.14454000  0.91695000  0.57345000  1
  H  H16  1  0.14905000  0.64519000  0.42193000  1
  H  H17  1  0.12683000  0.35934000  0.58127000  1
  H  H18  1  0.68568000  0.15780000  0.43013000  1
  H  H19  1  0.63151000  0.85957000  0.58063000  1
  H  H20  1  0.93695000  0.61100000  0.95719000  1
  H  H21  1  0.93215000  0.58593000  0.08500000  1
  H  H22  1  0.41188000  0.90793000  0.91424000  1
  H  H23  1  0.41537000  0.88240000  0.04221000  1
  H  H24  1  0.02958000  0.50041000  0.56016000  1
  H  H25  1  0.02731000  0.51716000  0.43237000  1
  H  H26  1  0.52967000  0.00155000  0.55949000  1
  H  H27  1  0.52819000  0.01798000  0.43164000  1
  H  H28  1  0.02564000  0.86054000  0.92426000  1
  H  H29  1  0.96659000  0.15615000  0.05935000  1
  H  H30  1  0.39413000  0.32060000  0.94925000  1
  H  H31  1  0.52810000  0.63961000  0.07574000  1
  H  H32  1  0.94029000  0.88300000  0.10248000  1
  H  H33  1  0.88346000  0.15512000  0.87184000  1
  H  H34  1  0.38373000  0.34970000  0.13626000  1
  H  H35  1  0.44368000  0.61552000  0.89728000  1
  H  H36  1  0.28180000  0.61323000  0.05826000  1
  H  H37  1  0.21925000  0.40968000  0.92950000  1
  H  H38  1  0.72563000  0.09318000  0.06867000  1
  H  H39  1  0.76833000  0.89090000  0.93968000  1
  H  H40  1  0.24230000  0.64393000  0.87009000  1
  H  H41  1  0.18284000  0.38510000  0.11235000  1
  H  H42  1  0.67267000  0.11245000  0.89368000  1
  H  H43  1  0.73859000  0.85802000  0.12790000  1
  H  H44  1  0.14789000  0.90172000  0.44802000  1
  H  H45  1  0.04308000  0.99646000  0.56307000  1
  H  H46  1  0.65888000  0.39437000  0.45001000  1
  H  H47  1  0.54439000  0.48634000  0.56438000  1
  H  H48  1  0.19292000  0.57805000  0.51554000  1
  H  H49  1  0.15532000  0.43222000  0.48679000  1
  H  H50  1  0.69173000  0.07669000  0.51767000  1
  H  H51  1  0.65761000  0.93215000  0.48675000  1
  H  H52  1  0.80842000  0.79404000  0.37083000  1
  H  H53  1  0.89704000  0.09951000  0.57193000  1
  H  H54  1  0.30370000  0.28563000  0.37447000  1
  H  H55  1  0.38129000  0.60951000  0.58518000  1
  H  H56  1  0.81911000  0.83300000  0.59416000  1
  H  H57  1  0.05217000  0.11378000  0.40439000  1
  H  H58  1  0.31808000  0.33169000  0.59312000  1
  H  H59  1  0.33800000  0.65097000  0.40766000  1
  H  H60  1  0.72008000  0.39815000  0.04522000  1
  H  H61  1  0.72372000  0.42386000  0.91713000  1
  H  H62  1  0.24560000  0.08512000  0.08419000  1
  H  H63  1  0.24350000  0.11113000  0.95607000  1
  C  C64  1  0.61569000  0.73291000  0.64963000  1
  C  C65  1  0.61800000  0.26760000  0.35117000  1
  C  C66  1  0.11560000  0.23265000  0.64954000  1
  C  C67  1  0.11604000  0.76718000  0.35039000  1
  C  C68  1  0.84495000  0.53272000  0.64601000  1
  C  C69  1  0.84448000  0.46771000  0.35362000  1
  C  C70  1  0.34500000  0.03323000  0.64568000  1
  C  C71  1  0.34450000  0.96815000  0.35337000  1
  C  C72  1  0.98320000  0.72767000  0.63889000  1
  C  C73  1  0.99336000  0.26956000  0.36123000  1
  C  C74  1  0.48298000  0.22748000  0.63909000  1
  C  C75  1  0.48406000  0.77209000  0.36105000  1
  C  C76  1  0.62476000  0.72819000  0.85458000  1
  C  C77  1  0.61620000  0.26849000  0.14945000  1
  C  C78  1  0.11676000  0.23141000  0.85047000  1
  C  C79  1  0.12515000  0.77189000  0.14519000  1
  C  C80  1  0.84343000  0.53384000  0.85409000  1
  C  C81  1  0.84220000  0.46685000  0.14633000  1
  C  C82  1  0.34257000  0.03302000  0.85359000  1
  C  C83  1  0.34303000  0.96653000  0.14610000  1
  C  C84  1  0.03400000  0.74228000  0.85237000  1
  C  C85  1  0.02360000  0.26088000  0.14291000  1
  C  C86  1  0.47963000  0.22639000  0.86186000  1
  C  C87  1  0.53343000  0.75782000  0.14743000  1
  C  C88  1  0.83532000  0.50087000  0.42333000  1
  C  C89  1  0.83755000  0.50792000  0.57291000  1
  C  C90  1  0.33579000  0.00281000  0.42243000  1
  C  C91  1  0.33767000  0.01018000  0.57199000  1
  C  C92  1  0.72749000  0.50186000  0.46235000  1
  C  C93  1  0.72825000  0.50991000  0.53594000  1
  C  C94  1  0.22792000  0.00638000  0.46118000  1
  C  C95  1  0.22887000  0.01438000  0.53468000  1
  C  C96  1  0.94421000  0.50616000  0.53359000  1
  C  C97  1  0.94249000  0.51264000  0.46019000  1
  C  C98  1  0.44453000  0.00803000  0.53282000  1
  C  C99  1  0.44316000  0.01426000  0.45935000  1
  C  C100  1  0.62839000  0.44864000  0.46514000  1
  C  C101  1  0.62672000  0.45886000  0.54478000  1
  C  C102  1  0.12347000  0.95689000  0.46362000  1
  C  C103  1  0.12294000  0.96665000  0.54338000  1
  C  C104  1  0.07996000  0.67663000  0.52413000  1
  C  C105  1  0.07856000  0.32326000  0.47632000  1
  C  C106  1  0.58930000  0.17885000  0.52687000  1
  C  C107  1  0.57067000  0.82569000  0.47715000  1
  C  C108  1  0.09742000  0.68403000  0.45109000  1
  C  C109  1  0.08754000  0.31710000  0.55005000  1
  C  C110  1  0.61690000  0.18983000  0.45557000  1
  C  C111  1  0.58631000  0.81868000  0.55058000  1
  C  C112  1  0.05307000  0.74168000  0.41402000  1
  C  C113  1  0.05275000  0.25569000  0.58458000  1
  C  C114  1  0.56064000  0.24229000  0.41600000  1
  C  C115  1  0.55026000  0.75825000  0.58624000  1
  C  C116  1  0.96408000  0.78414000  0.44468000  1
  C  C117  1  0.98291000  0.20529000  0.54824000  1
  C  C118  1  0.46469000  0.28056000  0.44480000  1
  C  C119  1  0.46890000  0.71221000  0.55359000  1
  C  C120  1  0.94982000  0.78405000  0.51856000  1
  C  C121  1  0.99247000  0.20218000  0.47464000  1
  C  C122  1  0.44973000  0.28184000  0.51845000  1
  C  C123  1  0.46129000  0.71120000  0.47958000  1
  C  C124  1  0.00836000  0.72991000  0.56079000  1
  C  C125  1  0.03090000  0.26390000  0.43672000  1
  C  C126  1  0.51044000  0.22964000  0.56171000  1
  C  C127  1  0.51008000  0.76922000  0.43896000  1
  C  C128  1  0.89107000  0.56388000  0.97632000  1
  C  C129  1  0.88767000  0.55034000  0.04866000  1
  C  C130  1  0.37622000  0.94664000  0.95103000  1
  C  C131  1  0.37852000  0.93264000  0.02340000  1
  C  C132  1  0.82834000  0.49001000  0.07346000  1
  C  C133  1  0.83566000  0.51697000  0.92874000  1
  C  C134  1  0.33458000  0.98338000  0.07147000  1
  C  C135  1  0.32944000  0.01132000  0.92688000  1
  C  C136  1  0.76624000  0.44535000  0.02620000  1
  C  C137  1  0.76943000  0.45906000  0.95360000  1
  C  C138  1  0.28158000  0.04646000  0.04728000  1
  C  C139  1  0.27941000  0.06055000  0.97474000  1
  C  C140  1  0.06059000  0.81588000  0.95505000  1
  C  C141  1  0.00750000  0.20004000  0.03060000  1
  C  C142  1  0.45296000  0.28290000  0.97630000  1
  C  C143  1  0.56109000  0.68440000  0.04470000  1
  C  C144  1  0.05512000  0.81904000  0.02787000  1
  C  C145  1  0.99942000  0.20019000  0.95767000  1
  C  C146  1  0.47512000  0.29211000  0.04780000  1
  C  C147  1  0.55561000  0.68090000  0.97188000  1
  C  C148  1  0.09836000  0.75999000  0.06949000  1
  C  C149  1  0.06275000  0.25274000  0.91853000  1
  C  C150  1  0.55411000  0.24422000  0.08411000  1
  C  C151  1  0.59641000  0.74021000  0.93003000  1
  C  C152  1  0.14494000  0.69834000  0.03455000  1
  C  C153  1  0.10144000  0.31538000  0.95266000  1
  C  C154  1  0.58975000  0.18033000  0.05030000  1
  C  C155  1  0.63932000  0.80261000  0.96458000  1
  C  C156  1  0.14487000  0.69615000  0.95964000  1
  C  C157  1  0.09675000  0.31880000  0.02764000  1
  C  C158  1  0.56953000  0.17271000  0.97647000  1
  C  C159  1  0.64034000  0.80490000  0.03947000  1
  C  C160  1  0.09181000  0.75329000  0.92116000  1
  C  C161  1  0.05449000  0.25817000  0.06695000  1
  C  C162  1  0.50566000  0.22744000  0.93871000  1
  C  C163  1  0.59041000  0.74725000  0.07833000  1
  C  C164  1  0.99877000  0.88515000  0.05661000  1
  C  C165  1  0.92259000  0.14515000  0.92383000  1
  C  C166  1  0.41563000  0.35390000  0.08195000  1
  C  C167  1  0.50159000  0.61421000  0.94348000  1
  C  C168  1  0.19672000  0.63665000  0.07469000  1
  C  C169  1  0.14575000  0.37718000  0.91013000  1
  C  C170  1  0.65002000  0.12207000  0.09121000  1
  C  C171  1  0.68526000  0.86515000  0.92377000  1
  C  C172  1  0.19803000  0.63462000  0.92065000  1
  C  C173  1  0.13184000  0.38624000  0.06342000  1
  C  C174  1  0.61660000  0.10803000  0.94046000  1
  C  C175  1  0.69189000  0.86693000  0.07797000  1
  C  C176  1  0.14720000  0.61309000  0.55265000  1
  C  C177  1  0.13087000  0.39141000  0.44904000  1
  C  C178  1  0.65069000  0.11317000  0.55518000  1
  C  C179  1  0.62871000  0.89207000  0.44927000  1
  C  C180  1  0.87931000  0.82315000  0.39754000  1
  C  C181  1  0.90676000  0.15429000  0.58833000  1
  C  C182  1  0.37713000  0.31618000  0.39683000  1
  C  C183  1  0.39220000  0.66520000  0.59799000  1
  C  C184  1  0.87608000  0.84241000  0.54967000  1
  C  C185  1  0.98057000  0.13185000  0.43924000  1
  C  C186  1  0.37445000  0.34023000  0.54818000  1
  C  C187  1  0.40776000  0.64673000  0.44704000  1
  O  O188  1  0.95739000  0.78751000  0.67041000  1
  O  O189  1  0.95739000  0.21249000  0.32959000  1
  O  O190  1  0.45739000  0.28751000  0.67041000  1
  O  O191  1  0.45739000  0.71249000  0.32959000  1
  O  O192  1  0.70791000  0.76567000  0.67509000  1
  O  O193  1  0.70791000  0.23433000  0.32491000  1
  O  O194  1  0.20791000  0.26567000  0.67509000  1
  O  O195  1  0.20791000  0.73433000  0.32491000  1
  O  O196  1  0.59098000  0.67022000  0.66856000  1
  O  O197  1  0.59098000  0.32978000  0.33144000  1
  O  O198  1  0.09098000  0.17022000  0.66856000  1
  O  O199  1  0.09098000  0.82978000  0.33144000  1
  O  O200  1  0.74841000  0.55658000  0.67498000  1
  O  O201  1  0.74841000  0.44342000  0.32502000  1
  O  O202  1  0.24841000  0.05658000  0.67498000  1
  O  O203  1  0.24841000  0.94342000  0.32502000  1
  O  O204  1  0.95033000  0.54589000  0.67003000  1
  O  O205  1  0.95033000  0.45411000  0.32997000  1
  O  O206  1  0.45033000  0.04589000  0.67003000  1
  O  O207  1  0.45033000  0.95411000  0.32997000  1
  O  O208  1  0.04214000  0.68134000  0.67650000  1
  O  O209  1  0.04214000  0.31866000  0.32350000  1
  O  O210  1  0.54214000  0.18134000  0.67650000  1
  O  O211  1  0.54214000  0.81866000  0.32350000  1
  O  O212  1  0.95599000  0.78738000  0.83094000  1
  O  O213  1  0.95599000  0.21262000  0.16906000  1
  O  O214  1  0.45599000  0.28738000  0.83094000  1
  O  O215  1  0.45599000  0.71262000  0.16906000  1
  O  O216  1  0.70661000  0.76554000  0.82391000  1
  O  O217  1  0.70661000  0.23446000  0.17609000  1
  O  O218  1  0.20661000  0.26554000  0.82391000  1
  O  O219  1  0.20661000  0.73446000  0.17609000  1
  O  O220  1  0.58959000  0.67009000  0.82909000  1
  O  O221  1  0.58959000  0.32991000  0.17091000  1
  O  O222  1  0.08959000  0.17009000  0.82909000  1
  O  O223  1  0.08959000  0.82991000  0.17091000  1
  O  O224  1  0.74711000  0.55645000  0.82379000  1
  O  O225  1  0.74711000  0.44355000  0.17621000  1
  O  O226  1  0.24711000  0.05645000  0.82379000  1
  O  O227  1  0.24711000  0.94355000  0.17621000  1
  O  O228  1  0.94893000  0.54575000  0.83056000  1
  O  O229  1  0.94893000  0.45425000  0.16944000  1
  O  O230  1  0.44893000  0.04575000  0.83056000  1
  O  O231  1  0.44893000  0.95425000  0.16944000  1
  O  O232  1  0.04085000  0.68121000  0.82532000  1
  O  O233  1  0.04085000  0.31879000  0.17468000  1
  O  O234  1  0.54085000  0.18121000  0.82532000  1
  O  O235  1  0.54085000  0.81879000  0.17468000  1
  O  O236  1  0.83219000  0.66782000  0.74996000  1
  O  O237  1  0.83219000  0.33218000  0.25004000  1
  O  O238  1  0.33219000  0.16782000  0.74996000  1
  O  O239  1  0.33219000  0.83218000  0.25004000  1
  O  O240  1  0.01550000  0.94297000  0.02813000  1
  O  O241  1  0.90208000  0.08841000  0.95353000  1
  O  O242  1  0.40292000  0.41031000  0.04994000  1
  O  O243  1  0.51921000  0.55678000  0.97276000  1
  O  O244  1  0.14349000  0.61041000  0.12514000  1
  O  O245  1  0.09813000  0.39324000  0.85371000  1
  O  O246  1  0.61270000  0.10443000  0.14971000  1
  O  O247  1  0.62933000  0.88933000  0.87313000  1
  O  O248  1  0.18835000  0.57342000  0.94227000  1
  O  O249  1  0.10236000  0.44423000  0.03918000  1
  O  O250  1  0.59512000  0.04867000  0.96390000  1
  O  O251  1  0.67804000  0.92804000  0.05676000  1
  O  O252  1  0.15630000  0.59652000  0.61484000  1
  O  O253  1  0.15535000  0.40362000  0.38736000  1
  O  O254  1  0.65959000  0.09630000  0.61732000  1
  O  O255  1  0.65267000  0.90380000  0.38745000  1
  O  O256  1  0.89219000  0.88667000  0.38551000  1
  O  O257  1  0.85623000  0.17365000  0.64257000  1
  O  O258  1  0.38889000  0.37886000  0.38060000  1
  O  O259  1  0.34422000  0.68854000  0.65144000  1
  O  O260  1  0.88010000  0.90309000  0.52633000  1
  O  O261  1  0.89021000  0.09559000  0.44542000  1
  O  O262  1  0.37689000  0.40026000  0.52305000  1
  O  O263  1  0.44489000  0.58748000  0.46299000  1
