# generated using pymatgen
data_MnH6(C3O)4
_symmetry_space_group_name_H-M   'P 1'
_cell_length_a   11.22320000
_cell_length_b   11.22320000
_cell_length_c   21.25500000
_cell_angle_alpha   95.80600000
_cell_angle_beta   95.80600000
_cell_angle_gamma   106.98500000
_symmetry_Int_Tables_number   1
_chemical_formula_structural   MnH6(C3O)4
_chemical_formula_sum   'Mn6 H36 C72 O24'
_cell_volume   2523.21726394
_cell_formula_units_Z   6
loop_
 _symmetry_equiv_pos_site_id
 _symmetry_equiv_pos_as_xyz
  1  'x, y, z'
loop_
 _atom_site_type_symbol
 _atom_site_label
 _atom_site_symmetry_multiplicity
 _atom_site_fract_x
 _atom_site_fract_y
 _atom_site_fract_z
 _atom_site_occupancy
  Mn  Mn1  1  0.51716000  0.99964000  0.80790000  1.0
  Mn  Mn2  1  0.00036000  0.48284000  0.69210000  1.0
  Mn  Mn3  1  0.48284000  0.00036000  0.19210000  1.0
  Mn  Mn4  1  0.99964000  0.51716000  0.30790000  1.0
  Mn  Mn5  1  0.74737000  0.25263000  0.75000000  1.0
  Mn  Mn6  1  0.25263000  0.74737000  0.25000000  1.0
  H  H1  1  0.53030000  0.24350000  0.50660000  1.0
  H  H2  1  0.54780000  0.15180000  0.60900000  1.0
  H  H3  1  0.01960000  0.23260000  0.90550000  1.0
  H  H4  1  0.15600000  0.22320000  0.99080000  1.0
  H  H5  1  0.78650000  0.89490000  0.92310000  1.0
  H  H6  1  0.43640000  0.32940000  0.07750000  1.0
  H  H7  1  0.49110000  0.26250000  0.97130000  1.0
  H  H8  1  0.49470000  0.78130000  0.60240000  1.0
  H  H9  1  0.59640000  0.51740000  0.85270000  1.0
  H  H10  1  0.75650000  0.46970000  0.99340000  1.0
  H  H11  1  0.84820000  0.45220000  0.89100000  1.0
  H  H12  1  0.76740000  0.98040000  0.59450000  1.0
  H  H13  1  0.77680000  0.84400000  0.50920000  1.0
  H  H14  1  0.10510000  0.21350000  0.57690000  1.0
  H  H15  1  0.67060000  0.56360000  0.42250000  1.0
  H  H16  1  0.73750000  0.50890000  0.52870000  1.0
  H  H17  1  0.21870000  0.50530000  0.89760000  1.0
  H  H18  1  0.48260000  0.40360000  0.64730000  1.0
  H  H19  1  0.46970000  0.75650000  0.49340000  1.0
  H  H20  1  0.45220000  0.84820000  0.39100000  1.0
  H  H21  1  0.98040000  0.76740000  0.09450000  1.0
  H  H22  1  0.84400000  0.77680000  0.00920000  1.0
  H  H23  1  0.21350000  0.10510000  0.07690000  1.0
  H  H24  1  0.56360000  0.67060000  0.92250000  1.0
  H  H25  1  0.50890000  0.73750000  0.02870000  1.0
  H  H26  1  0.50530000  0.21870000  0.39760000  1.0
  H  H27  1  0.40360000  0.48260000  0.14730000  1.0
  H  H28  1  0.24350000  0.53030000  0.00660000  1.0
  H  H29  1  0.15180000  0.54780000  0.10900000  1.0
  H  H30  1  0.23260000  0.01960000  0.40550000  1.0
  H  H31  1  0.22320000  0.15600000  0.49080000  1.0
  H  H32  1  0.89490000  0.78650000  0.42310000  1.0
  H  H33  1  0.32940000  0.43640000  0.57750000  1.0
  H  H34  1  0.26250000  0.49110000  0.47130000  1.0
  H  H35  1  0.78130000  0.49470000  0.10240000  1.0
  H  H36  1  0.51740000  0.59640000  0.35270000  1.0
  C  C1  1  0.51190000  0.06050000  0.51748000  1.0
  C  C2  1  0.05550000  0.04950000  0.01035000  1.0
  C  C3  1  0.53520000  0.98380000  0.68737000  1.0
  C  C4  1  0.51640000  0.16420000  0.48390000  1.0
  C  C5  1  0.53020000  0.07280000  0.58541000  1.0
  C  C6  1  0.00060000  0.16240000  0.92690000  1.0
  C  C7  1  0.52270000  0.97170000  0.61626000  1.0
  C  C8  1  0.08260000  0.15700000  0.97760000  1.0
  C  C9  1  0.57810000  0.27710000  0.86050000  1.0
  C  C10  1  0.79590000  0.07570000  0.85190000  1.0
  C  C11  1  0.86070000  0.96010000  0.93700000  1.0
  C  C12  1  0.88840000  0.06520000  0.90623000  1.0
  C  C13  1  0.44940000  0.41020000  0.06680000  1.0
  C  C14  1  0.50740000  0.34460000  0.96220000  1.0
  C  C15  1  0.49930000  0.85050000  0.58110000  1.0
  C  C16  1  0.48870000  0.43830000  0.00760000  1.0
  C  C17  1  0.54870000  0.37370000  0.90590000  1.0
  C  C18  1  0.56940000  0.49780000  0.89140000  1.0
  C  C19  1  0.93950000  0.48810000  0.98252000  1.0
  C  C20  1  0.95050000  0.94450000  0.48965000  1.0
  C  C21  1  0.01620000  0.46480000  0.81263000  1.0
  C  C22  1  0.83580000  0.48360000  0.01610000  1.0
  C  C23  1  0.92720000  0.46980000  0.91459000  1.0
  C  C24  1  0.83760000  0.99940000  0.57310000  1.0
  C  C25  1  0.02830000  0.47730000  0.88374000  1.0
  C  C26  1  0.84300000  0.91740000  0.52240000  1.0
  C  C27  1  0.72290000  0.42190000  0.63950000  1.0
  C  C28  1  0.92430000  0.20410000  0.64810000  1.0
  C  C29  1  0.03990000  0.13930000  0.56300000  1.0
  C  C30  1  0.93480000  0.11160000  0.59377000  1.0
  C  C31  1  0.58980000  0.55060000  0.43320000  1.0
  C  C32  1  0.65540000  0.49260000  0.53780000  1.0
  C  C33  1  0.14950000  0.50070000  0.91890000  1.0
  C  C34  1  0.56170000  0.51130000  0.49240000  1.0
  C  C35  1  0.62630000  0.45130000  0.59410000  1.0
  C  C36  1  0.50220000  0.43060000  0.60860000  1.0
  C  C37  1  0.48810000  0.93950000  0.48252000  1.0
  C  C38  1  0.94450000  0.95050000  0.98965000  1.0
  C  C39  1  0.46480000  0.01620000  0.31263000  1.0
  C  C40  1  0.48360000  0.83580000  0.51610000  1.0
  C  C41  1  0.46980000  0.92720000  0.41459000  1.0
  C  C42  1  0.99940000  0.83760000  0.07310000  1.0
  C  C43  1  0.47730000  0.02830000  0.38374000  1.0
  C  C44  1  0.91740000  0.84300000  0.02240000  1.0
  C  C45  1  0.42190000  0.72290000  0.13950000  1.0
  C  C46  1  0.20410000  0.92430000  0.14810000  1.0
  C  C47  1  0.13930000  0.03990000  0.06300000  1.0
  C  C48  1  0.11160000  0.93480000  0.09377000  1.0
  C  C49  1  0.55060000  0.58980000  0.93320000  1.0
  C  C50  1  0.49260000  0.65540000  0.03780000  1.0
  C  C51  1  0.50070000  0.14950000  0.41890000  1.0
  C  C52  1  0.51130000  0.56170000  0.99240000  1.0
  C  C53  1  0.45130000  0.62630000  0.09410000  1.0
  C  C54  1  0.43060000  0.50220000  0.10860000  1.0
  C  C55  1  0.06050000  0.51190000  0.01748000  1.0
  C  C56  1  0.04950000  0.05550000  0.51035000  1.0
  C  C57  1  0.98380000  0.53520000  0.18737000  1.0
  C  C58  1  0.16420000  0.51640000  0.98390000  1.0
  C  C59  1  0.07280000  0.53020000  0.08541000  1.0
  C  C60  1  0.16240000  0.00060000  0.42690000  1.0
  C  C61  1  0.97170000  0.52270000  0.11626000  1.0
  C  C62  1  0.15700000  0.08260000  0.47760000  1.0
  C  C63  1  0.27710000  0.57810000  0.36050000  1.0
  C  C64  1  0.07570000  0.79590000  0.35190000  1.0
  C  C65  1  0.96010000  0.86070000  0.43700000  1.0
  C  C66  1  0.06520000  0.88840000  0.40623000  1.0
  C  C67  1  0.41020000  0.44940000  0.56680000  1.0
  C  C68  1  0.34460000  0.50740000  0.46220000  1.0
  C  C69  1  0.85050000  0.49930000  0.08110000  1.0
  C  C70  1  0.43830000  0.48870000  0.50760000  1.0
  C  C71  1  0.37370000  0.54870000  0.40590000  1.0
  C  C72  1  0.49780000  0.56940000  0.39140000  1.0
  O  O1  1  0.57852000  0.09188000  0.72031000  1.0
  O  O2  1  0.69310000  0.98950000  0.84059000  1.0
  O  O3  1  0.82936000  0.16764000  0.82224000  1.0
  O  O4  1  0.49480000  0.88800000  0.71326000  1.0
  O  O5  1  0.54210000  0.16450000  0.87047000  1.0
  O  O6  1  0.63950000  0.31790000  0.81649000  1.0
  O  O7  1  0.90812000  0.42148000  0.77969000  1.0
  O  O8  1  0.01050000  0.30690000  0.65941000  1.0
  O  O9  1  0.83236000  0.17064000  0.67776000  1.0
  O  O10  1  0.11200000  0.50520000  0.78674000  1.0
  O  O11  1  0.83550000  0.45790000  0.62953000  1.0
  O  O12  1  0.68210000  0.36050000  0.68351000  1.0
  O  O13  1  0.42148000  0.90812000  0.27969000  1.0
  O  O14  1  0.30690000  0.01050000  0.15941000  1.0
  O  O15  1  0.17064000  0.83236000  0.17776000  1.0
  O  O16  1  0.50520000  0.11200000  0.28674000  1.0
  O  O17  1  0.45790000  0.83550000  0.12953000  1.0
  O  O18  1  0.36050000  0.68210000  0.18351000  1.0
  O  O19  1  0.09188000  0.57852000  0.22031000  1.0
  O  O20  1  0.98950000  0.69310000  0.34059000  1.0
  O  O21  1  0.16764000  0.82936000  0.32224000  1.0
  O  O22  1  0.88800000  0.49480000  0.21326000  1.0
  O  O23  1  0.16450000  0.54210000  0.37047000  1.0
  O  O24  1  0.31790000  0.63950000  0.31649000  1.0
