# generated using pymatgen
data_H4Pb(C3O2)3
_symmetry_space_group_name_H-M   'P 1'
_cell_length_a   6.99613599
_cell_length_b   9.24124139
_cell_length_c   19.47981123
_cell_angle_alpha   79.90434482
_cell_angle_beta   89.99515362
_cell_angle_gamma   67.76462902
_symmetry_Int_Tables_number   1
_chemical_formula_structural   H4Pb(C3O2)3
_chemical_formula_sum   'H16 Pb4 C36 O24'
_cell_volume   1144.68625811
_cell_formula_units_Z   4
loop_
 _symmetry_equiv_pos_site_id
 _symmetry_equiv_pos_as_xyz
  1  'x, y, z'
loop_
 _atom_site_type_symbol
 _atom_site_label
 _atom_site_symmetry_multiplicity
 _atom_site_fract_x
 _atom_site_fract_y
 _atom_site_fract_z
 _atom_site_occupancy
  H  H1  1  0.49300406  0.25846866  0.48018934  1.0
  H  H2  1  0.75191389  0.74108560  0.01976137  1.0
  H  H3  1  0.50698379  0.74155108  0.51980272  1.0
  H  H4  1  0.24810771  0.25888157  0.98025648  1.0
  H  H5  1  0.27344633  0.48915903  0.55221214  1.0
  H  H6  1  0.76295568  0.51048275  0.94765977  1.0
  H  H7  1  0.72656134  0.51085353  0.44777862  1.0
  H  H8  1  0.23702161  0.48952782  0.05234221  1.0
  H  H9  1  0.78330620  0.90999801  0.59359360  1.0
  H  H10  1  0.69233402  0.09011979  0.90623046  1.0
  H  H11  1  0.21669283  0.09000123  0.40640380  1.0
  H  H12  1  0.30769137  0.90986139  0.09377482  1.0
  H  H13  1  0.92007051  0.85975942  0.38119089  1.0
  H  H14  1  0.77975579  0.14000369  0.11864123  1.0
  H  H15  1  0.07992603  0.14025982  0.61880171  1.0
  H  H16  1  0.22027487  0.85998656  0.88135942  1.0
  Pb  Pb1  1  0.18336647  0.39255455  0.80118072  1.0
  Pb  Pb2  1  0.57577348  0.60782596  0.69888591  1.0
  Pb  Pb3  1  0.81657592  0.60747315  0.19882345  1.0
  Pb  Pb4  1  0.42420930  0.39215463  0.30110835  1.0
  C  C1  1  0.10701430  0.66273741  0.46114389  1.0
  C  C2  1  0.76951351  0.33705088  0.03871235  1.0
  C  C3  1  0.89299214  0.33727409  0.53885061  1.0
  C  C4  1  0.23048722  0.66294023  0.96129256  1.0
  C  C5  1  0.14961439  0.60415743  0.53303010  1.0
  C  C6  1  0.75366942  0.39563964  0.96683436  1.0
  C  C7  1  0.85040070  0.39585106  0.46696118  1.0
  C  C8  1  0.24632386  0.60435460  0.03317104  1.0
  C  C9  1  0.03128465  0.69209957  0.58055737  1.0
  C  C10  1  0.72299884  0.30781834  0.91931784  1.0
  C  C11  1  0.96872632  0.30790690  0.41943221  1.0
  C  C12  1  0.27700248  0.69217259  0.08068596  1.0
  C  C13  1  0.87463256  0.84159095  0.55642937  1.0
  C  C14  1  0.71561459  0.15837983  0.94342481  1.0
  C  C15  1  0.12536788  0.15841465  0.44356503  1.0
  C  C16  1  0.28440307  0.84160584  0.05658339  1.0
  C  C17  1  0.83776257  0.90289965  0.48450943  1.0
  C  C18  1  0.74033632  0.09695180  0.01534300  1.0
  C  C19  1  0.16223230  0.09711298  0.51548384  1.0
  C  C20  1  0.25968847  0.90303850  0.98466407  1.0
  C  C21  1  0.95178668  0.81240379  0.43706496  1.0
  C  C22  1  0.76392530  0.18739808  0.06278445  1.0
  C  C23  1  0.04821574  0.18760960  0.56293009  1.0
  C  C24  1  0.23609748  0.81258399  0.93722246  1.0
  C  C25  1  0.22588950  0.56643468  0.41003375  1.0
  C  C26  1  0.79211645  0.43327351  0.08989770  1.0
  C  C27  1  0.77409383  0.43357218  0.58996189  1.0
  C  C28  1  0.20786688  0.56672866  0.91011207  1.0
  C  C29  1  0.07235400  0.62251496  0.65691161  1.0
  C  C30  1  0.69452747  0.37749923  0.84300653  1.0
  C  C31  1  0.92766750  0.37747558  0.34307707  1.0
  C  C32  1  0.30546970  0.62249819  0.15699673  1.0
  C  C33  1  0.67947992  0.06355109  0.45568892  1.0
  C  C34  1  0.74293402  0.93622277  0.04421208  1.0
  C  C35  1  0.32050999  0.93646148  0.54430571  1.0
  C  C36  1  0.25708391  0.06377211  0.95579911  1.0
  O  O1  1  0.36907473  0.42979840  0.43219053  1.0
  O  O2  1  0.79926668  0.56978266  0.06778885  1.0
  O  O3  1  0.63092775  0.57022376  0.56779892  1.0
  O  O4  1  0.20072160  0.43022115  0.93222433  1.0
  O  O5  1  0.18081467  0.62253789  0.34473247  1.0
  O  O6  1  0.80250792  0.37723539  0.15518609  1.0
  O  O7  1  0.81914105  0.37744133  0.65526197  1.0
  O  O8  1  0.19744636  0.62276659  0.84482388  1.0
  O  O9  1  0.25922712  0.53196027  0.67961227  1.0
  O  O10  1  0.79064193  0.46827014  0.82037868  1.0
  O  O11  1  0.74080064  0.46804378  0.32037474  1.0
  O  O12  1  0.20936865  0.53171965  0.17962505  1.0
  O  O13  1  0.92388806  0.65010489  0.69686196  1.0
  O  O14  1  0.57391401  0.34988090  0.80297444  1.0
  O  O15  1  0.07613893  0.34984046  0.30312769  1.0
  O  O16  1  0.42607266  0.65013290  0.19702922  1.0
  O  O17  1  0.59031730  0.14831320  0.50391241  1.0
  O  O18  1  0.73905669  0.85126745  0.99601532  1.0
  O  O19  1  0.40966304  0.85169933  0.49608097  1.0
  O  O20  1  0.26097108  0.14871093  0.00400336  1.0
  O  O21  1  0.63795179  0.11196029  0.39187692  1.0
  O  O22  1  0.74961940  0.88789230  0.10802234  1.0
  O  O23  1  0.36203548  0.88805961  0.60811626  1.0
  O  O24  1  0.25037723  0.11211674  0.89198647  1.0
