# generated using pymatgen
data_H7C15(N2O)2
_symmetry_space_group_name_H-M   'P 1'
_cell_length_a   15.49625000
_cell_length_b   17.28250000
_cell_length_c   48.01940000
_cell_angle_alpha   87.83850000
_cell_angle_beta   90.00010000
_cell_angle_gamma   90.00410000
_symmetry_Int_Tables_number   1
_chemical_formula_structural   H7C15(N2O)2
_chemical_formula_sum   'H56 C120 N32 O16'
_cell_volume   12851.11444362
_cell_formula_units_Z   8
loop_
 _symmetry_equiv_pos_site_id
 _symmetry_equiv_pos_as_xyz
  1  'x, y, z'
loop_
 _atom_site_type_symbol
 _atom_site_label
 _atom_site_symmetry_multiplicity
 _atom_site_fract_x
 _atom_site_fract_y
 _atom_site_fract_z
 _atom_site_occupancy
  C  1  1  0.64188600  0.23645500  0.86976925  1
  C  2  1  0.60939200  0.16505650  0.85977750  1
  C  3  1  0.61007400  0.15033900  0.83073400  1
  C  4  1  0.64772350  0.20737200  0.81275375  1
  C  5  1  0.67691600  0.28030150  0.82096875  1
  C  6  1  0.67263550  0.29459750  0.85002550  1
  C  7  1  0.57852000  0.10957900  0.87965025  1
  C  8  1  0.70471000  0.36387500  0.86049675  1
  C  10  1  0.64536350  0.24855700  0.89934525  1
  C  11  1  0.61051550  0.19231900  0.91903500  1
  C  12  1  0.61081100  0.20530700  0.94838975  1
  C  13  1  0.66088800  0.26916550  0.95715575  1
  C  14  1  0.70217000  0.32331350  0.93858600  1
  C  15  1  0.68654550  0.31614400  0.90935325  1
  C  16  1  0.57912600  0.12286950  0.90813500  1
  C  18  1  0.71159600  0.37400850  0.88917525  1
  C  23  1  0.70546500  0.32917200  0.79822750  1
  C  24  1  0.76006100  0.37995250  0.94892125  1
  C  25  1  0.56585850  0.16022050  0.96955950  1
  C  26  1  0.57798300  0.08258500  0.81829550  1
  C  31  1  0.62711200  0.75146250  0.61938525  1
  C  32  1  0.59520700  0.82332450  0.62917925  1
  C  33  1  0.58406800  0.83445200  0.65819275  1
  C  34  1  0.60071200  0.77002400  0.67631650  1
  C  35  1  0.63581100  0.69858250  0.66846425  1
  C  36  1  0.64916200  0.69029450  0.63925075  1
  C  37  1  0.57442100  0.88245000  0.60926375  1
  C  38  1  0.68419700  0.62209200  0.62878325  1
  C  40  1  0.63819800  0.74190000  0.58986625  1
  C  41  1  0.60901800  0.80030300  0.57003575  1
  C  42  1  0.61185100  0.78817150  0.54068725  1
  C  43  1  0.66167400  0.72393050  0.53219600  1
  C  44  1  0.69957500  0.66836300  0.55103275  1
  C  45  1  0.67962600  0.67418750  0.58007225  1
  C  46  1  0.58058600  0.87096200  0.58073525  1
  C  48  1  0.69989400  0.61484300  0.60027175  1
  C  53  1  0.65344800  0.64669250  0.69170725  1
  C  54  1  0.75728500  0.61107200  0.54105675  1
  C  55  1  0.56833300  0.83417800  0.51948025  1
  C  56  1  0.56268300  0.90566100  0.67058325  1
  C  61  1  0.16698200  0.75786650  0.12054125  1
  C  62  1  0.20248250  0.82831100  0.13037225  1
  C  63  1  0.20332450  0.84317500  0.15940425  1
  C  64  1  0.16541850  0.78677700  0.17759475  1
  C  65  1  0.13350900  0.71464850  0.16951175  1
  C  66  1  0.13537400  0.70050300  0.14042725  1
  C  67  1  0.23534850  0.88248850  0.11037575  1
  C  68  1  0.10027900  0.63218300  0.13012475  1
  C  70  1  0.16143350  0.74596500  0.09099325  1
  C  71  1  0.19725100  0.80128250  0.07114225  1
  C  72  1  0.19401700  0.78882650  0.04178925  1
  C  73  1  0.14170500  0.72599900  0.03333825  1
  C  74  1  0.10027350  0.67248800  0.05208575  1
  C  75  1  0.11746600  0.67945600  0.08121700  1
  C  76  1  0.23290800  0.86925750  0.08189350  1
  C  78  1  0.09139750  0.62231200  0.10150375  1
  C  83  1  0.10499200  0.66613850  0.19234275  1
  C  84  1  0.04108000  0.61665450  0.04192325  1
  C  85  1  0.23762100  0.83333000  0.02018025  1
  C  86  1  0.23669900  0.91075100  0.17162575  1
  C  91  1  0.18133700  0.24202000  0.36983025  1
  C  92  1  0.21621000  0.17118250  0.36010875  1
  C  93  1  0.22760700  0.16008450  0.33110025  1
  C  94  1  0.20790500  0.22358000  0.31287125  1
  C  95  1  0.17068150  0.29413200  0.32070925  1
  C  96  1  0.15739350  0.30243900  0.34991225  1
  C  97  1  0.23993500  0.11315900  0.38009075  1
  C  98  1  0.11986900  0.36970850  0.36027575  1
  C  100  1  0.16910800  0.25125350  0.39931825  1
  C  101  1  0.19972050  0.19362450  0.41922975  1
  C  102  1  0.19424150  0.20509500  0.44857025  1
  C  103  1  0.14221700  0.26823750  0.45683525  1
  C  104  1  0.10394700  0.32330700  0.43792000  1
  C  105  1  0.12503900  0.31784800  0.40896875  1
  C  106  1  0.23251100  0.12438600  0.40860925  1
  C  108  1  0.10343400  0.37666300  0.38873600  1
  C  113  1  0.15118100  0.34543750  0.29748775  1
  C  114  1  0.04494100  0.37966900  0.44782275  1
  C  115  1  0.23652800  0.15960300  0.47017025  1
  C  116  1  0.25185400  0.08943700  0.31883625  1
  C  121  1  0.69263450  0.53100650  0.71867075  1
  C  123  1  0.68309900  0.52759350  0.76908375  1
  C  124  1  0.70136800  0.44804150  0.77044875  1
  C  126  1  0.71500400  0.45152450  0.71996875  1
  C  128  1  0.72940000  0.40950400  0.69632575  1
  C  134  1  0.55619800  0.03422250  0.76875775  1
  C  136  1  0.55871400  0.03430400  0.71885575  1
  C  137  1  0.54547850  0.95392650  0.72006375  1
  C  139  1  0.53921050  0.95378600  0.77003425  1
  C  141  1  0.53112550  0.91094250  0.79462775  1
  C  147  1  0.11208400  0.46190750  0.27099775  1
  C  149  1  0.11903800  0.46625550  0.22057125  1
  C  150  1  0.10378750  0.54632350  0.21958825  1
  C  152  1  0.09197150  0.54186300  0.27009525  1
  C  154  1  0.08018000  0.58358350  0.29394400  1
  C  160  1  0.25938100  0.95974350  0.22101975  1
  C  162  1  0.25802300  0.96045800  0.27089625  1
  C  163  1  0.27027800  0.04096750  0.26949125  1
  C  165  1  0.27539350  0.04029050  0.21953425  1
  C  167  1  0.28213350  0.08298250  0.19465875  1
  C  173  1  0.96001750  0.55375650  0.00502500  1
  C  175  1  0.85731500  0.45050100  0.01383450  1
  C  176  1  0.84004000  0.44500400  0.98518375  1
  C  178  1  0.94270150  0.54913650  0.97609575  1
  C  180  1  0.98198150  0.59693500  0.95612975  1
  C  186  1  0.96081400  0.44032450  0.48467750  1
  C  188  1  0.86065900  0.54570300  0.47628625  1
  C  189  1  0.84051350  0.54825650  0.50484475  1
  C  191  1  0.94065900  0.44204800  0.51350225  1
  C  193  1  0.97739700  0.39149500  0.53313475  1
  C  199  1  0.34761300  0.05319550  0.48258875  1
  C  201  1  0.45158400  0.94901650  0.47966525  1
  C  202  1  0.45782600  0.94119350  0.50893550  1
  C  204  1  0.35395000  0.04552950  0.51208050  1
  C  206  1  0.31074300  0.09328100  0.52982075  1
  C  212  1  0.34742600  0.94044050  0.00732475  1
  C  214  1  0.44916400  0.04652000  0.00979325  1
  C  215  1  0.45692850  0.05223000  0.98052625  1
  C  217  1  0.35537400  0.94593000  0.97783700  1
  C  219  1  0.31420100  0.89623950  0.96031325  1
  H  9  1  0.65121300  0.19638650  0.79197325  1
  H  17  1  0.66779800  0.27675700  0.97810000  1
  H  19  1  0.56193500  0.07681100  0.92068275  1
  H  20  1  0.55633650  0.05684550  0.87404025  1
  H  21  1  0.73460950  0.42643500  0.89477100  1
  H  22  1  0.72776100  0.40710100  0.84745700  1
  H  27  1  0.71937800  0.30257350  0.78001725  1
  H  28  1  0.79389450  0.41292450  0.93473150  1
  H  29  1  0.57436350  0.17407000  0.98991250  1
  H  30  1  0.55782300  0.03551950  0.82984300  1
  H  39  1  0.58915650  0.77652050  0.69706275  1
  H  47  1  0.67050200  0.71698600  0.51129075  1
  H  49  1  0.56861300  0.91827500  0.56810025  1
  H  50  1  0.55172600  0.93497900  0.61493600  1
  H  51  1  0.72324550  0.56254750  0.59466025  1
  H  52  1  0.70022600  0.57629650  0.64177225  1
  H  57  1  0.64182000  0.66885800  0.71082425  1
  H  58  1  0.78816350  0.57614150  0.55538475  1
  H  59  1  0.57809150  0.82137750  0.49908525  1
  H  60  1  0.56345600  0.95721000  0.65956375  1
  H  69  1  0.16345350  0.79769600  0.19839825  1
  H  77  1  0.13315700  0.71865000  0.01243975  1
  H  79  1  0.25291500  0.91418650  0.06926625  1
  H  80  1  0.26089700  0.93407000  0.11591625  1
  H  81  1  0.06617700  0.57058200  0.09604825  1
  H  82  1  0.07627600  0.58960750  0.14324725  1
  H  87  1  0.09388600  0.69269700  0.21076675  1
  H  88  1  0.00711100  0.58376300  0.05609325  1
  H  89  1  0.22571200  0.81906600  0.00011275  1
  H  90  1  0.25598100  0.95789050  0.15994325  1
  H  99  1  0.21914600  0.21716350  0.29210150  1
  H  107  1  0.13193550  0.27480050  0.47769475  1
  H  109  1  0.24732100  0.07783300  0.42127075  1
  H  110  1  0.26547300  0.06163250  0.37445725  1
  H  111  1  0.07790650  0.42822800  0.39424825  1
  H  112  1  0.10215500  0.41489500  0.34725600  1
  H  117  1  0.16137250  0.32307050  0.27831225  1
  H  118  1  0.01370100  0.41449550  0.43355625  1
  H  119  1  0.22342100  0.17276050  0.49027425  1
  H  120  1  0.25200900  0.03796700  0.32990975  1
  H  127  1  0.66884100  0.55694050  0.78657925  1
  H  131  1  0.81916650  0.46908400  0.67958025  1
  H  140  1  0.56974200  0.06402650  0.70041525  1
  H  144  1  0.44765850  0.89061600  0.82243100  1
  H  153  1  0.13208850  0.43716200  0.20292325  1
  H  157  1  0.99027400  0.52539600  0.31123500  1
  H  166  1  0.24784700  0.93094200  0.28943025  1
  H  170  1  0.38999150  0.04622550  0.18239825  1
  H  179  1  0.82705700  0.41501550  0.02826050  1
  H  183  1  0.99246950  0.70300600  0.94605875  1
  H  192  1  0.83242650  0.58314450  0.46205550  1
  H  196  1  0.97900950  0.28464050  0.54234925  1
  H  205  1  0.48673450  0.91454450  0.46711475  1
  H  209  1  0.37692300  0.18437700  0.52471025  1
  H  218  1  0.48288850  0.08252100  0.02218075  1
  H  222  1  0.38044600  0.80587750  0.96749225  1
  N  122  1  0.67838650  0.56431150  0.74366175  1
  N  125  1  0.71644200  0.41448850  0.74559275  1
  N  132  1  0.68108800  0.57216200  0.69396625  1
  N  133  1  0.69502500  0.40685000  0.79517025  1
  N  135  1  0.56537300  0.07059800  0.74330425  1
  N  138  1  0.53651000  0.91742900  0.74542425  1
  N  145  1  0.57326700  0.07928650  0.79026675  1
  N  146  1  0.55204600  0.90750100  0.69845825  1
  N  148  1  0.12408500  0.42882150  0.24585425  1
  N  151  1  0.09089900  0.57960600  0.24461025  1
  N  158  1  0.12452300  0.42023650  0.29551375  1
  N  159  1  0.11122750  0.58805650  0.19503725  1
  N  161  1  0.25132500  0.92364800  0.24655575  1
  N  164  1  0.27818700  0.07715150  0.24403425  1
  N  171  1  0.24215300  0.91434400  0.19962700  1
  N  172  1  0.26271100  0.08771200  0.29096875  1
  N  174  1  0.91565900  0.50354450  0.02239625  1
  N  177  1  0.88425200  0.49527850  0.96785850  1
  N  184  1  0.01851700  0.60529350  0.01500500  1
  N  185  1  0.78213700  0.39211900  0.97584925  1
  N  187  1  0.91903150  0.49291250  0.46754625  1
  N  190  1  0.88215600  0.49563450  0.52193525  1
  N  197  1  0.01932000  0.38898100  0.47459700  1
  N  198  1  0.78262400  0.60094750  0.51428325  1
  N  200  1  0.39757200  0.00368900  0.46803775  1
  N  203  1  0.40845900  0.99072800  0.52350600  1
  N  210  1  0.29685900  0.10303550  0.46696625  1
  N  211  1  0.50912900  0.89075100  0.52389625  1
  N  213  1  0.39555150  0.99187350  0.02164025  1
  N  216  1  0.40939550  0.00078550  0.96619450  1
  N  223  1  0.29670400  0.89103900  0.02314475  1
  N  224  1  0.50806200  0.10238300  0.96536950  1
  O  129  1  0.70482250  0.34227850  0.69638525  1
  O  130  1  0.78941050  0.42528400  0.68010925  1
  O  142  1  0.56897350  0.84872850  0.79689025  1
  O  143  1  0.46260800  0.91875200  0.80738775  1
  O  155  1  0.10524400  0.65067950  0.29388425  1
  O  156  1  0.02088000  0.56872000  0.31054075  1
  O  168  1  0.23990450  0.14257800  0.19224000  1
  O  169  1  0.35018500  0.08305100  0.18122725  1
  O  181  1  0.99462700  0.57225800  0.93286975  1
  O  182  1  0.97433800  0.66763550  0.95856200  1
  O  194  1  0.98901000  0.41433750  0.55670675  1
  O  195  1  0.96388550  0.32180150  0.53009375  1
  O  207  1  0.26958300  0.06140300  0.54869925  1
  O  208  1  0.34105150  0.15687350  0.53552825  1
  O  220  1  0.27453500  0.92508400  0.94052500  1
  O  221  1  0.34533300  0.83190550  0.95596175  1
