# generated using pymatgen
data_H14C17
_symmetry_space_group_name_H-M   'P 1'
_cell_length_a   32.37920000
_cell_length_b   34.38895000
_cell_length_c   34.38890000
_cell_angle_alpha   119.99985571
_cell_angle_beta   90.00000000
_cell_angle_gamma   90.00000000
_symmetry_Int_Tables_number   1
_chemical_formula_structural   H14C17
_chemical_formula_sum   'H336 C408'
_cell_volume   33161.53134928
_cell_formula_units_Z   24
loop_
 _symmetry_equiv_pos_site_id
 _symmetry_equiv_pos_as_xyz
  1  'x, y, z'
loop_
 _atom_site_type_symbol
 _atom_site_label
 _atom_site_symmetry_multiplicity
 _atom_site_fract_x
 _atom_site_fract_y
 _atom_site_fract_z
 _atom_site_occupancy
  H  5  1  0.86678100  0.56344400  0.64278600  1
  H  6  1  0.89118200  0.53597800  0.66769100  1
  H  9  1  0.96670800  0.55573100  0.69715200  1
  H  10  1  0.99367200  0.59709700  0.69125600  1
  H  11  1  0.90692500  0.58046500  0.75326300  1
  H  12  1  0.89121400  0.63655300  0.78449700  1
  H  15  1  0.97495300  0.67952400  0.73734200  1
  H  16  1  0.93257400  0.69591900  0.77438300  1
  H  18  1  0.96143800  0.63492400  0.65185900  1
  H  19  1  0.91067100  0.62146300  0.63179900  1
  H  21  1  0.86042700  0.67895500  0.74584000  1
  H  22  1  0.84907900  0.64799100  0.68805300  1
  H  27  1  0.87162700  0.06991500  0.43201300  1
  H  28  1  0.89346900  0.12376600  0.46103700  1
  H  31  1  0.96707200  0.13831300  0.44184300  1
  H  32  1  0.99640200  0.09388800  0.40071200  1
  H  33  1  0.90648100  0.16738300  0.41732100  1
  H  34  1  0.89042000  0.14241900  0.36133500  1
  H  37  1  0.97668100  0.05519400  0.31753600  1
  H  38  1  0.93331500  0.07457900  0.30120900  1
  H  40  1  0.96511500  0.01185000  0.35916400  1
  H  41  1  0.91565300  0.00493500  0.37562900  1
  H  43  1  0.86186600  0.06088100  0.31852000  1
  H  44  1  0.85215700  0.03292300  0.34876900  1
  H  49  1  0.86813500  0.35216100  0.91999000  1
  H  50  1  0.89223200  0.32739100  0.86746100  1
  H  53  1  0.96769800  0.29745200  0.85705100  1
  H  54  1  0.99483600  0.30296800  0.90405200  1
  H  55  1  0.90758800  0.24174400  0.82584800  1
  H  56  1  0.89184900  0.21035300  0.85051500  1
  H  59  1  0.97621900  0.25660400  0.94000100  1
  H  60  1  0.93362100  0.21980000  0.91970300  1
  H  62  1  0.96318900  0.34206900  0.98138800  1
  H  63  1  0.91255800  0.36257100  0.98868100  1
  H  65  1  0.86161200  0.24877700  0.93180400  1
  H  66  1  0.85057700  0.30665200  0.95898600  1
  H  71  1  0.62369400  0.07145400  0.63955800  1
  H  72  1  0.60151600  0.12516800  0.66480500  1
  H  75  1  0.52800900  0.13894400  0.69875500  1
  H  76  1  0.49912600  0.09413100  0.69518500  1
  H  77  1  0.58875100  0.16812600  0.75218600  1
  H  78  1  0.60529000  0.14288900  0.78279600  1
  H  81  1  0.51956500  0.05507500  0.73911000  1
  H  82  1  0.56300600  0.07455200  0.77470700  1
  H  84  1  0.53085300  0.01238700  0.65411000  1
  H  85  1  0.58018400  0.00593800  0.63056700  1
  H  87  1  0.63436100  0.06156600  0.74343500  1
  H  88  1  0.64386100  0.03404800  0.68519300  1
  H  93  1  0.62854500  0.35222800  0.43308100  1
  H  94  1  0.60384100  0.32691100  0.45998100  1
  H  97  1  0.52843200  0.29732500  0.43935300  1
  H  98  1  0.50187200  0.30350100  0.39793800  1
  H  99  1  0.58832500  0.24130500  0.41481300  1
  H  100  1  0.60446500  0.21045700  0.35884100  1
  H  103  1  0.52125100  0.25791200  0.31565500  1
  H  104  1  0.56368900  0.22095300  0.29941200  1
  H  106  1  0.53451300  0.34337700  0.36086600  1
  H  107  1  0.58517200  0.36360500  0.37492200  1
  H  109  1  0.63577200  0.24971900  0.31728100  1
  H  110  1  0.64690900  0.30754100  0.34870300  1
  H  115  1  0.62505600  0.56380800  0.92591600  1
  H  116  1  0.60253800  0.53563600  0.87237300  1
  H  119  1  0.52899100  0.55604200  0.85928200  1
  H  120  1  0.50025900  0.59721600  0.90431600  1
  H  121  1  0.58942200  0.58052100  0.82991300  1
  H  122  1  0.60594100  0.63639400  0.85534100  1
  H  125  1  0.52082200  0.68027700  0.94377700  1
  H  126  1  0.56406900  0.69626800  0.92395300  1
  H  128  1  0.53251500  0.63744300  0.98597900  1
  H  129  1  0.58196300  0.62010600  0.99181100  1
  H  131  1  0.63555600  0.67787400  0.93645500  1
  H  132  1  0.64533100  0.64686900  0.96362400  1
  H  137  1  0.12360400  0.43108300  0.35807600  1
  H  138  1  0.10149100  0.45948900  0.33273700  1
  H  141  1  0.02798400  0.43939400  0.29880500  1
  H  142  1  0.99900600  0.39827700  0.30248700  1
  H  143  1  0.08870800  0.41484900  0.24532600  1
  H  144  1  0.10512900  0.35895100  0.21485600  1
  H  147  1  0.01927200  0.31524800  0.25880400  1
  H  148  1  0.06271000  0.29895800  0.22320100  1
  H  150  1  0.03053800  0.35780100  0.34381300  1
  H  151  1  0.07990000  0.37480300  0.36732600  1
  H  153  1  0.13406800  0.31715200  0.25445300  1
  H  154  1  0.14358600  0.34801400  0.31268400  1
  H  159  1  0.12839100  0.91811100  0.56495800  1
  H  160  1  0.10365600  0.86591200  0.53809700  1
  H  163  1  0.02826500  0.85699500  0.55880200  1
  H  164  1  0.00173600  0.90459700  0.60023300  1
  H  165  1  0.08818600  0.82550800  0.58329600  1
  H  166  1  0.10438200  0.85063600  0.63924800  1
  H  169  1  0.02119000  0.94131500  0.68249500  1
  H  170  1  0.06364600  0.92060400  0.69871600  1
  H  172  1  0.03440500  0.98153800  0.63725300  1
  H  173  1  0.08504800  0.98769100  0.62313900  1
  H  175  1  0.13570700  0.93144800  0.68076400  1
  H  176  1  0.14682000  0.95782400  0.64931300  1
  H  181  1  0.12508000  0.63677200  0.07202600  1
  H  182  1  0.10260300  0.66222100  0.12559000  1
  H  185  1  0.02907400  0.69574600  0.13871300  1
  H  186  1  0.00030300  0.69182900  0.09368300  1
  H  187  1  0.08952000  0.74958200  0.16794300  1
  H  188  1  0.10600300  0.77994100  0.14240900  1
  H  191  1  0.02081000  0.73528300  0.05406200  1
  H  192  1  0.06407500  0.77108300  0.07378600  1
  H  194  1  0.03245600  0.65024700  0.01198600  1
  H  195  1  0.08189500  0.62705700  0.00611500  1
  H  197  1  0.13554100  0.74015600  0.06124800  1
  H  198  1  0.14531200  0.68198800  0.03417800  1
  H  203  1  0.36685900  0.91957200  0.35493400  1
  H  204  1  0.39135300  0.86724900  0.32991900  1
  H  207  1  0.46687100  0.85777500  0.30049700  1
  H  208  1  0.49372700  0.90513600  0.30648700  1
  H  209  1  0.40709200  0.82637800  0.24435000  1
  H  210  1  0.39131000  0.85133400  0.21322800  1
  H  213  1  0.47488800  0.94161200  0.26058500  1
  H  214  1  0.43251500  0.92093800  0.22353500  1
  H  216  1  0.46135200  0.98230200  0.34608600  1
  H  217  1  0.41058800  0.98871800  0.36612100  1
  H  219  1  0.36036700  0.93233400  0.25206800  1
  H  220  1  0.34903300  0.95901100  0.30985100  1
  H  225  1  0.37159000  0.63688800  0.56575100  1
  H  226  1  0.39344400  0.66175100  0.53676900  1
  H  229  1  0.46703700  0.69548100  0.55599000  1
  H  230  1  0.49635600  0.69214800  0.59710400  1
  H  231  1  0.40645500  0.74910200  0.58056900  1
  H  232  1  0.39041100  0.78007600  0.63656600  1
  H  235  1  0.47665200  0.73655800  0.68027900  1
  H  236  1  0.43329400  0.77228200  0.69662500  1
  H  238  1  0.46507600  0.65157800  0.63857400  1
  H  239  1  0.41560900  0.62821700  0.62209000  1
  H  241  1  0.36184600  0.74128100  0.67930000  1
  H  242  1  0.35212100  0.68307600  0.64900500  1
  H  247  1  0.36828300  0.43095300  0.07779000  1
  H  248  1  0.39235100  0.45869500  0.13033600  1
  H  251  1  0.46782200  0.43921800  0.14078300  1
  H  252  1  0.49500000  0.39777300  0.09379500  1
  H  253  1  0.40769700  0.41461900  0.17190000  1
  H  254  1  0.39200500  0.35854200  0.14717800  1
  H  257  1  0.47644500  0.31545100  0.05776600  1
  H  258  1  0.43384300  0.29888200  0.07800500  1
  H  260  1  0.46339900  0.35957200  0.01641500  1
  H  261  1  0.41276200  0.37275900  0.00911300  1
  H  263  1  0.36183400  0.31570300  0.06585500  1
  H  264  1  0.35079600  0.34642600  0.03870400  1
  H  271  1  0.74275900  0.64533900  0.78588400  1
  H  272  1  0.79645500  0.65370500  0.74491000  1
  H  279  1  0.70193000  0.52290100  0.76435800  1
  H  280  1  0.64643700  0.53079500  0.81310500  1
  H  281  1  0.69959700  0.65119800  0.91437700  1
  H  282  1  0.84863400  0.53149800  0.72185600  1
  H  283  1  0.75342200  0.64370100  0.86559900  1
  H  284  1  0.79333700  0.52273000  0.76225000  1
  H  291  1  0.74317100  0.13011700  0.35205500  1
  H  292  1  0.79743000  0.08177200  0.34459200  1
  H  299  1  0.70165100  0.23203900  0.47304800  1
  H  300  1  0.64626400  0.27227300  0.46417800  1
  H  301  1  0.69969000  0.25139100  0.34325900  1
  H  302  1  0.84902200  0.18276400  0.46619400  1
  H  303  1  0.75350400  0.21059700  0.35171100  1
  H  304  1  0.79314400  0.23101500  0.47402300  1
  H  311  1  0.74309200  0.21068400  0.85977400  1
  H  312  1  0.79737000  0.25094300  0.90853800  1
  H  319  1  0.70187100  0.23259000  0.75932000  1
  H  320  1  0.64585000  0.18440100  0.71908500  1
  H  321  1  0.69861700  0.08262300  0.73768000  1
  H  322  1  0.84926300  0.27339100  0.80885100  1
  H  323  1  0.75298400  0.13083200  0.77830700  1
  H  324  1  0.79340100  0.23367000  0.76025900  1
  H  331  1  0.25281700  0.35112800  0.21923200  1
  H  332  1  0.19838700  0.34372600  0.25994700  1
  H  339  1  0.29341700  0.47203400  0.23733000  1
  H  340  1  0.34932600  0.46318700  0.18882100  1
  H  341  1  0.29753100  0.34104100  0.08905400  1
  H  342  1  0.14590200  0.46416900  0.27842800  1
  H  343  1  0.24318100  0.34950900  0.13774500  1
  H  344  1  0.20195100  0.47196200  0.23816400  1
  H  351  1  0.25343700  0.85788500  0.64619200  1
  H  352  1  0.19958200  0.90710400  0.65472100  1
  H  359  1  0.29305200  0.75603900  0.52385700  1
  H  360  1  0.34898900  0.71563200  0.53166000  1
  H  361  1  0.29745900  0.73623300  0.65327700  1
  H  362  1  0.14608100  0.80705000  0.53384200  1
  H  363  1  0.24318400  0.77706700  0.64584600  1
  H  364  1  0.20154000  0.75797300  0.52490400  1
  H  371  1  0.25338500  0.77721100  0.13219800  1
  H  372  1  0.19958500  0.73578800  0.08341800  1
  H  379  1  0.29357100  0.75944900  0.23530500  1
  H  380  1  0.34887500  0.80860700  0.27565600  1
  H  381  1  0.29639100  0.90795000  0.25306800  1
  H  382  1  0.14660300  0.71662900  0.18472900  1
  H  383  1  0.24266500  0.85859700  0.21212000  1
  H  384  1  0.20204900  0.75755800  0.23344100  1
  H  391  1  0.97831600  0.70227400  0.89637400  1
  H  392  1  0.93627400  0.68268500  0.83464100  1
  H  399  1  0.08451400  0.61410700  0.88012100  1
  H  400  1  0.11033300  0.63276100  0.95136500  1
  H  401  1  0.05691300  0.76157500  0.00572600  1
  H  402  1  0.02782700  0.59334100  0.74885500  1
  H  403  1  0.03667800  0.74518000  0.93420600  1
  H  404  1  0.07192300  0.61634600  0.81146000  1
  H  411  1  0.97518600  0.19125100  0.29490400  1
  H  412  1  0.93432500  0.14888900  0.31543300  1
  H  419  1  0.08368000  0.26265700  0.38037900  1
  H  420  1  0.10975600  0.31426900  0.36065000  1
  H  421  1  0.05297500  0.24079000  0.23350400  1
  H  422  1  0.02794700  0.15405000  0.40360500  1
  H  423  1  0.03231100  0.18641600  0.25087500  1
  H  424  1  0.07075800  0.19321400  0.37935800  1
  H  431  1  0.97868400  0.09793000  0.80423700  1
  H  432  1  0.93650700  0.15973700  0.84552100  1
  H  439  1  0.08717900  0.11354700  0.73465400  1
  H  440  1  0.11331000  0.04211300  0.68308400  1
  H  441  1  0.05700300  0.98879600  0.75705300  1
  H  442  1  0.02920100  0.24531200  0.84359900  1
  H  443  1  0.03646500  0.06050200  0.81132300  1
  H  444  1  0.07341100  0.18262200  0.80499100  1
  H  451  1  0.52086200  0.19085700  0.89829900  1
  H  452  1  0.56164100  0.14889600  0.83522700  1
  H  459  1  0.41057800  0.26081000  0.88432400  1
  H  460  1  0.38405200  0.31206900  0.95550500  1
  H  461  1  0.44342700  0.24058000  0.00983800  1
  H  462  1  0.46727200  0.15356100  0.75271100  1
  H  463  1  0.46453000  0.18639100  0.93827600  1
  H  464  1  0.42455700  0.19215800  0.81622300  1
  H  471  1  0.51758200  0.09840600  0.29210800  1
  H  472  1  0.55958800  0.16029600  0.31218600  1
  H  479  1  0.41003200  0.11462500  0.37925900  1
  H  480  1  0.38371500  0.04359500  0.36048200  1
  H  481  1  0.43896100  0.98862900  0.23252100  1
  H  482  1  0.46750400  0.24567500  0.40091600  1
  H  483  1  0.45975200  0.05995000  0.24894600  1
  H  484  1  0.42347200  0.18298700  0.37738500  1
  H  491  1  0.52114900  0.70352700  0.80749800  1
  H  492  1  0.56187300  0.68327400  0.85021200  1
  H  499  1  0.41296000  0.61680600  0.73549900  1
  H  500  1  0.38664300  0.63556100  0.68329700  1
  H  501  1  0.44334900  0.76288600  0.75522100  1
  H  502  1  0.46859100  0.59439300  0.84415600  1
  H  503  1  0.46427000  0.74651600  0.81020400  1
  H  504  1  0.42591500  0.61833600  0.80471500  1
  H  511  1  0.02057200  0.29133300  0.09944400  1
  H  512  1  0.06137900  0.31252800  0.16251000  1
  H  519  1  0.91023600  0.37536600  0.11338000  1
  H  520  1  0.88367200  0.35537700  0.04214500  1
  H  521  1  0.94328000  0.22970400  0.98788800  1
  H  522  1  0.96718400  0.40009700  0.24494200  1
  H  523  1  0.96432100  0.24704100  0.05939900  1
  H  524  1  0.92443100  0.37508900  0.18146000  1
  H  531  1  0.01770300  0.80529100  0.70604300  1
  H  532  1  0.05958800  0.84719100  0.68598200  1
  H  539  1  0.91006100  0.73435800  0.61897200  1
  H  540  1  0.88379100  0.68206200  0.63763300  1
  H  541  1  0.93921200  0.75473900  0.76553500  1
  H  542  1  0.96738100  0.84379900  0.59735300  1
  H  543  1  0.95999400  0.80975500  0.74919800  1
  H  544  1  0.92344700  0.80457900  0.62089600  1
  H  551  1  0.02116500  0.89491200  0.19016300  1
  H  552  1  0.06189800  0.83193300  0.14751300  1
  H  559  1  0.91285600  0.88017800  0.26214100  1
  H  560  1  0.88654100  0.95119000  0.31440300  1
  H  561  1  0.94355700  0.00661000  0.24266100  1
  H  562  1  0.96864300  0.74918100  0.15373800  1
  H  563  1  0.96440400  0.93531900  0.18765100  1
  H  564  1  0.92595700  0.81255400  0.19308300  1
  H  571  1  0.47841500  0.80540000  0.10139400  1
  H  572  1  0.43638200  0.84755300  0.16315000  1
  H  579  1  0.58444300  0.73330700  0.11769800  1
  H  580  1  0.61025000  0.68065000  0.04657600  1
  H  581  1  0.55713900  0.75498900  0.99192900  1
  H  582  1  0.52789800  0.84380200  0.24887300  1
  H  583  1  0.53682600  0.81022500  0.06345300  1
  H  584  1  0.57197800  0.80420800  0.18626800  1
  H  591  1  0.47539200  0.89526800  0.70311000  1
  H  592  1  0.43438700  0.83243300  0.68243200  1
  H  599  1  0.58416800  0.88098300  0.61780500  1
  H  600  1  0.61033000  0.95235700  0.63755300  1
  H  601  1  0.55312700  0.00610300  0.76447500  1
  H  602  1  0.52800300  0.74933200  0.59433100  1
  H  603  1  0.53242800  0.93444500  0.74717900  1
  H  604  1  0.57093800  0.81264800  0.61873100  1
  H  611  1  0.47881400  0.29244800  0.19351200  1
  H  612  1  0.43668500  0.31292300  0.15215700  1
  H  619  1  0.58714200  0.37785800  0.26332200  1
  H  620  1  0.61323900  0.35812400  0.31493400  1
  H  621  1  0.55722500  0.23066300  0.24097100  1
  H  622  1  0.52931200  0.40057700  0.15429200  1
  H  623  1  0.53665300  0.24805500  0.18661200  1
  H  624  1  0.57349200  0.37654800  0.19296900  1
  H  631  1  0.92329800  0.51493300  0.50319800  1
  H  632  1  0.89518400  0.54697800  0.57545700  1
  H  639  1  0.06041200  0.51970900  0.49411700  1
  H  640  1  0.08943700  0.48508600  0.42116500  1
  H  641  1  0.97787500  0.41472300  0.36888000  1
  H  642  1  0.01081200  0.53598800  0.62579000  1
  H  643  1  0.94976500  0.44829100  0.44047500  1
  H  644  1  0.03856500  0.50260900  0.55284000  1
  H  651  1  0.93480600  0.02374500  0.52186000  1
  H  652  1  0.90584100  0.06187700  0.48697400  1
  H  659  1  0.07193200  0.00879700  0.51607500  1
  H  660  1  0.10007000  0.96877000  0.54827400  1
  H  661  1  0.98407700  0.90882500  0.53917900  1
  H  662  1  0.01720500  0.04278800  0.41599700  1
  H  663  1  0.95627300  0.94818100  0.50558400  1
  H  664  1  0.04519000  0.00477400  0.44966200  1
  H  671  1  0.92492100  0.49138200  0.01093600  1
  H  672  1  0.89672800  0.41916400  0.97073500  1
  H  679  1  0.06186100  0.50058900  0.02499500  1
  H  680  1  0.09085500  0.57361400  0.06303600  1
  H  681  1  0.97952000  0.62538400  0.04371500  1
  H  682  1  0.01224600  0.36868600  0.90919900  1
  H  683  1  0.95143000  0.55377500  0.00611000  1
  H  684  1  0.04011500  0.44159900  0.94885700  1
  H  691  1  0.56013400  0.02517600  0.50381900  1
  H  692  1  0.58921800  0.06329000  0.57678700  1
  H  699  1  0.42325600  0.01022300  0.49467200  1
  H  700  1  0.39519500  0.97019100  0.42235100  1
  H  701  1  0.51103500  0.90956100  0.37186500  1
  H  702  1  0.47819600  0.04350200  0.62875400  1
  H  703  1  0.53876600  0.94904200  0.44482700  1
  H  704  1  0.45004800  0.00567000  0.55711000  1
  H  711  1  0.57197800  0.49177300  0.48175700  1
  H  712  1  0.60018200  0.41958000  0.44968000  1
  H  719  1  0.43479100  0.50079600  0.47616700  1
  H  720  1  0.40577600  0.57378900  0.51098600  1
  H  721  1  0.51722400  0.62583900  0.58170800  1
  H  722  1  0.48428000  0.36874100  0.45907000  1
  H  723  1  0.54526100  0.55421200  0.54809500  1
  H  724  1  0.45642900  0.44165600  0.49257800  1
  H  731  1  0.56181100  0.47446400  0.97270600  1
  H  732  1  0.59075600  0.50948500  0.93467600  1
  H  739  1  0.42496700  0.47955500  0.98712500  1
  H  740  1  0.39683800  0.44740200  0.02723200  1
  H  741  1  0.51243700  0.45827500  0.08856800  1
  H  742  1  0.47957300  0.58095800  0.95455000  1
  H  743  1  0.54025400  0.49160400  0.04895000  1
  H  744  1  0.45152800  0.54692300  0.99216600  1
  C  1  1  0.87163200  0.60572500  0.71528400  1
  C  2  1  0.90381300  0.61152400  0.75204600  1
  C  3  1  0.88915700  0.56809400  0.66850400  1
  C  4  1  0.93355100  0.57956400  0.65729100  1
  C  7  1  0.96316600  0.58733400  0.69705800  1
  C  8  1  0.94808400  0.62529300  0.74466200  1
  C  13  1  0.94415300  0.66935000  0.74213000  1
  C  14  1  0.91426300  0.66555200  0.70429800  1
  C  17  1  0.93099300  0.62586700  0.65891600  1
  C  20  1  0.87107000  0.65124400  0.71368100  1
  C  23  1  0.87330900  0.10277400  0.39178000  1
  C  24  1  0.90392500  0.13516300  0.38612000  1
  C  25  1  0.89247100  0.09293200  0.42842000  1
  C  26  1  0.93786500  0.07236400  0.41643100  1
  C  29  1  0.96507600  0.10671400  0.40989900  1
  C  30  1  0.94868400  0.11573000  0.37199000  1
  C  35  1  0.94553400  0.06913200  0.32771500  1
  C  36  1  0.91688900  0.03393800  0.33112700  1
  C  39  1  0.93483100  0.02786600  0.37009300  1
  C  42  1  0.87326400  0.05618500  0.34584000  1
  C  45  1  0.87268900  0.27964000  0.88939100  1
  C  46  1  0.90461500  0.24276400  0.85804100  1
  C  47  1  0.89036600  0.32639400  0.89867900  1
  C  48  1  0.93489400  0.33725000  0.92104800  1
  C  51  1  0.96426500  0.29737900  0.88867500  1
  C  52  1  0.94900800  0.24975100  0.87885900  1
  C  57  1  0.94530400  0.25201400  0.92532700  1
  C  58  1  0.91572400  0.28994200  0.95967900  1
  C  61  1  0.93261000  0.33535300  0.96559300  1
  C  64  1  0.87237900  0.28094300  0.93635900  1
  C  67  1  0.62224500  0.10380800  0.71260500  1
  C  68  1  0.59160800  0.13579300  0.75087900  1
  C  69  1  0.60281900  0.09419100  0.66630800  1
  C  70  1  0.55756500  0.07327900  0.65772900  1
  C  73  1  0.53034000  0.10722500  0.69882400  1
  C  74  1  0.54699000  0.11601300  0.74558800  1
  C  79  1  0.55060000  0.06926700  0.74287600  1
  C  80  1  0.57929200  0.03446900  0.70401800  1
  C  83  1  0.56103000  0.02861500  0.65918700  1
  C  86  1  0.62274500  0.05704200  0.71155800  1
  C  89  1  0.62392200  0.27977100  0.39032800  1
  C  90  1  0.59171600  0.24280100  0.38392900  1
  C  91  1  0.60615500  0.32638100  0.42801800  1
  C  92  1  0.56189800  0.33761100  0.41624600  1
  C  95  1  0.53226800  0.29767200  0.40790900  1
  C  96  1  0.54757700  0.25020500  0.36986400  1
  C  101  1  0.55194400  0.25309300  0.32603500  1
  C  102  1  0.58188600  0.29114200  0.33043500  1
  C  105  1  0.56486600  0.33634300  0.37013900  1
  C  108  1  0.62491400  0.28175200  0.34502900  1
  C  111  1  0.62329500  0.60485500  0.89394400  1
  C  112  1  0.59241700  0.61143000  0.86233300  1
  C  113  1  0.60400800  0.56802200  0.90343900  1
  C  114  1  0.55887700  0.58034900  0.92469500  1
  C  117  1  0.53142400  0.58774900  0.89107200  1
  C  118  1  0.54790700  0.62586100  0.88244300  1
  C  123  1  0.55174600  0.66975200  0.92930400  1
  C  124  1  0.58072500  0.66546800  0.96381000  1
  C  127  1  0.56258600  0.62632200  0.96947600  1
  C  130  1  0.62404000  0.65042200  0.94087200  1
  C  133  1  0.12209400  0.39022900  0.28506400  1
  C  134  1  0.09148500  0.38387800  0.24674700  1
  C  135  1  0.10272300  0.42705100  0.33132800  1
  C  136  1  0.05743200  0.41487500  0.33999100  1
  C  139  1  0.03024200  0.40765500  0.29884000  1
  C  140  1  0.04682900  0.36954000  0.25212300  1
  C  145  1  0.05033200  0.32558600  0.25499600  1
  C  146  1  0.07898900  0.32971700  0.29391000  1
  C  149  1  0.06076700  0.36882200  0.33868300  1
  C  152  1  0.12248600  0.34460000  0.28629000  1
  C  155  1  0.12380200  0.88843800  0.60773200  1
  C  156  1  0.09160500  0.85789000  0.61417400  1
  C  157  1  0.10599700  0.89734900  0.57005400  1
  C  158  1  0.06175000  0.92037400  0.58185800  1
  C  161  1  0.03212900  0.88879100  0.59023900  1
  C  162  1  0.04747500  0.87937900  0.62827900  1
  C  167  1  0.05187600  0.92610400  0.67209300  1
  C  168  1  0.08180900  0.95973300  0.66764800  1
  C  171  1  0.06475500  0.96522100  0.62795000  1
  C  174  1  0.12482700  0.93572700  0.65302000  1
  C  177  1  0.12333200  0.70978100  0.10389200  1
  C  178  1  0.09247900  0.74800700  0.13549000  1
  C  179  1  0.10404500  0.66348300  0.09449300  1
  C  180  1  0.05889300  0.65453100  0.07327800  1
  C  183  1  0.03147700  0.69560100  0.10689100  1
  C  184  1  0.04795400  0.74230700  0.11541600  1
  C  189  1  0.05174900  0.73924200  0.06850600  1
  C  190  1  0.08069700  0.70040200  0.03401200  1
  C  193  1  0.06254900  0.65563500  0.02844800  1
  C  196  1  0.12403300  0.70831800  0.05691500  1
  C  199  1  0.37170200  0.88953200  0.28245500  1
  C  200  1  0.40391400  0.85869300  0.24565900  1
  C  201  1  0.38925600  0.89859500  0.32919500  1
  C  202  1  0.43361500  0.92137300  0.34046600  1
  C  205  1  0.46325400  0.88950200  0.30066700  1
  C  206  1  0.44814900  0.87994000  0.25310600  1
  C  211  1  0.44411800  0.92657800  0.25576300  1
  C  212  1  0.41419200  0.96050100  0.29363300  1
  C  215  1  0.43094300  0.96611200  0.33897900  1
  C  218  1  0.37104100  0.93671800  0.28419300  1
  C  221  1  0.37328300  0.70997800  0.60604600  1
  C  222  1  0.40390400  0.74804100  0.61175000  1
  C  223  1  0.39244300  0.66350300  0.56937200  1
  C  224  1  0.43783400  0.65489700  0.58134600  1
  C  227  1  0.46503600  0.69579200  0.58791800  1
  C  228  1  0.44866100  0.74270500  0.62585900  1
  C  233  1  0.44550800  0.74033300  0.67010600  1
  C  234  1  0.41685700  0.70170900  0.66665400  1
  C  237  1  0.43479500  0.65668800  0.62765700  1
  C  240  1  0.37323300  0.70927400  0.65195700  1
  C  243  1  0.37285000  0.38898100  0.10832900  1
  C  244  1  0.40476300  0.38345500  0.13969200  1
  C  245  1  0.39051300  0.42649300  0.09910100  1
  C  246  1  0.43505700  0.41503700  0.07676600  1
  C  249  1  0.46441500  0.40753200  0.10914400  1
  C  250  1  0.44917400  0.36968100  0.11891000  1
  C  255  1  0.44551700  0.32550000  0.07241900  1
  C  256  1  0.41595200  0.32908100  0.03806000  1
  C  259  1  0.43281200  0.36861800  0.03219700  1
  C  262  1  0.37258800  0.34334200  0.06134000  1
  C  265  1  0.83012700  0.59408700  0.72896900  1
  C  266  1  0.82578100  0.55513900  0.73323800  1
  C  267  1  0.79297300  0.54973800  0.75734800  1
  C  268  1  0.76263800  0.58340600  0.77881000  1
  C  269  1  0.76438000  0.62031800  0.77151100  1
  C  270  1  0.79672300  0.62505600  0.74675500  1
  C  273  1  0.73296700  0.58293300  0.80958900  1
  C  274  1  0.70238400  0.54936400  0.79657800  1
  C  275  1  0.66954100  0.55412400  0.82584500  1
  C  276  1  0.66523000  0.59261100  0.86938400  1
  C  277  1  0.69911500  0.62306700  0.88347800  1
  C  278  1  0.73157800  0.61885000  0.85433000  1
  C  285  1  0.83107700  0.12671300  0.40377600  1
  C  286  1  0.82618300  0.16995100  0.44254800  1
  C  287  1  0.79306000  0.19892200  0.44733100  1
  C  288  1  0.76283200  0.18591800  0.41341300  1
  C  289  1  0.76478900  0.14139800  0.37713300  1
  C  290  1  0.79752400  0.11254300  0.37290300  1
  C  293  1  0.73298000  0.21655300  0.41298000  1
  C  294  1  0.70223800  0.23734500  0.44629800  1
  C  295  1  0.66935900  0.26133700  0.44082900  1
  C  296  1  0.66535000  0.26612900  0.40215500  1
  C  297  1  0.69910500  0.24900400  0.37160700  1
  C  298  1  0.73155600  0.22442600  0.37642900  1
  C  305  1  0.83098500  0.26638900  0.86445500  1
  C  306  1  0.82638500  0.26226300  0.82132800  1
  C  307  1  0.79323800  0.23857600  0.79217100  1
  C  308  1  0.76279200  0.21750200  0.80470900  1
  C  309  1  0.76478500  0.22478400  0.84890300  1
  C  310  1  0.79748000  0.24909800  0.87804200  1
  C  313  1  0.73277200  0.18704200  0.77377200  1
  C  314  1  0.70211500  0.20037200  0.75356800  1
  C  315  1  0.66895100  0.17144100  0.72944500  1
  C  316  1  0.66436500  0.12796200  0.72447300  1
  C  317  1  0.69830300  0.11352100  0.74044300  1
  C  318  1  0.73110200  0.14232200  0.76497300  1
  C  325  1  0.16427200  0.40231500  0.27311200  1
  C  326  1  0.16893300  0.44076400  0.26805100  1
  C  327  1  0.20215800  0.44552800  0.24396800  1
  C  328  1  0.23273000  0.41189600  0.22372400  1
  C  329  1  0.23095100  0.37597600  0.23251600  1
  C  330  1  0.19810600  0.37178000  0.25703900  1
  C  333  1  0.26283500  0.41139300  0.19284300  1
  C  334  1  0.29327500  0.44501700  0.20542400  1
  C  335  1  0.32646900  0.43955600  0.17631800  1
  C  336  1  0.33110500  0.40057000  0.13317800  1
  C  337  1  0.29764800  0.36964300  0.11959400  1
  C  338  1  0.26488300  0.37447600  0.14866000  1
  C  345  1  0.16520800  0.86291900  0.59584900  1
  C  346  1  0.16921000  0.81947500  0.55715700  1
  C  347  1  0.20211100  0.79003100  0.55165000  1
  C  348  1  0.23289600  0.80257300  0.58492600  1
  C  349  1  0.23147600  0.84699500  0.62148400  1
  C  350  1  0.19902900  0.87641000  0.62632700  1
  C  353  1  0.26276700  0.77150300  0.58446200  1
  C  354  1  0.29302500  0.75066700  0.55056800  1
  C  355  1  0.32613500  0.72642800  0.55528600  1
  C  356  1  0.33106400  0.72192900  0.59403500  1
  C  357  1  0.29749700  0.73858100  0.62490400  1
  C  358  1  0.26475900  0.76324000  0.62072700  1
  C  365  1  0.16529700  0.72211100  0.12837700  1
  C  366  1  0.16964900  0.72726800  0.17196100  1
  C  367  1  0.20251000  0.75176700  0.20121100  1
  C  368  1  0.23300800  0.77241900  0.18821100  1
  C  369  1  0.23155900  0.76363000  0.14348800  1
  C  370  1  0.19908800  0.73867700  0.11437100  1
  C  373  1  0.26271200  0.80365000  0.21895900  1
  C  374  1  0.29314200  0.79138500  0.24028200  1
  C  375  1  0.32596900  0.82088800  0.26435900  1
  C  376  1  0.33022700  0.86414000  0.26869400  1
  C  377  1  0.29675800  0.87737400  0.25104300  1
  C  378  1  0.26437300  0.84790400  0.22636800  1
  C  385  1  0.97649200  0.63505400  0.78397100  1
  C  386  1  0.01659100  0.61647800  0.77956100  1
  C  387  1  0.04299100  0.63003900  0.81686300  1
  C  388  1  0.03060300  0.66287800  0.86066300  1
  C  389  1  0.99006300  0.68000600  0.86545400  1
  C  390  1  0.96430200  0.66711300  0.82831500  1
  C  393  1  0.05560400  0.67676300  0.89990300  1
  C  394  1  0.08033900  0.64627200  0.90587700  1
  C  395  1  0.09501500  0.65730300  0.94879600  1
  C  396  1  0.08223800  0.69732300  0.98796800  1
  C  397  1  0.06478200  0.73063500  0.98005000  1
  C  398  1  0.05234200  0.72082700  0.93699400  1
  C  405  1  0.97578700  0.14630800  0.36235500  1
  C  406  1  0.01594900  0.16116300  0.38045700  1
  C  407  1  0.04163500  0.18480900  0.36621600  1
  C  408  1  0.02833300  0.19539600  0.33340700  1
  C  409  1  0.98755900  0.18285700  0.31710600  1
  C  410  1  0.96252600  0.15849700  0.33055000  1
  C  413  1  0.05295700  0.22031800  0.31869800  1
  C  414  1  0.07888400  0.25608300  0.34825000  1
  C  415  1  0.09369900  0.28746300  0.33660400  1
  C  416  1  0.08018100  0.28672400  0.29687600  1
  C  417  1  0.06140400  0.24600500  0.26429200  1
  C  418  1  0.04863600  0.21329500  0.27470900  1
  C  425  1  0.97724800  0.21031600  0.84919200  1
  C  426  1  0.01770600  0.21462500  0.83575200  1
  C  427  1  0.04418600  0.17727400  0.81262400  1
  C  428  1  0.03152000  0.13353800  0.80159300  1
  C  429  1  0.99059200  0.12881300  0.81298900  1
  C  430  1  0.96474100  0.16599100  0.83663800  1
  C  433  1  0.05670000  0.09426800  0.77712100  1
  C  434  1  0.08237700  0.08795300  0.74117300  1
  C  435  1  0.09717700  0.04487900  0.70982800  1
  C  436  1  0.08358500  0.00587900  0.71057100  1
  C  437  1  0.06538100  0.01425700  0.75165700  1
  C  438  1  0.05277800  0.05744700  0.78442700  1
  C  445  1  0.51984600  0.14619300  0.78594200  1
  C  446  1  0.47945600  0.16068300  0.78289800  1
  C  447  1  0.45381600  0.18402000  0.82087800  1
  C  448  1  0.46735600  0.19471300  0.86423500  1
  C  449  1  0.50829900  0.18241000  0.86777400  1
  C  450  1  0.53328700  0.15830600  0.82986000  1
  C  453  1  0.44277800  0.21950600  0.90398000  1
  C  454  1  0.41599500  0.25460700  0.91002700  1
  C  455  1  0.40095200  0.28586300  0.95300500  1
  C  456  1  0.41505300  0.28584400  0.99218100  1
  C  457  1  0.43464600  0.24552700  0.98419200  1
  C  458  1  0.44769800  0.21290000  0.94114300  1
  C  465  1  0.51912000  0.21077900  0.35960800  1
  C  466  1  0.47886600  0.21502800  0.37779600  1
  C  467  1  0.45249700  0.17765100  0.36391800  1
  C  468  1  0.46505200  0.13388300  0.33115000  1
  C  469  1  0.50570100  0.12927100  0.31431800  1
  C  470  1  0.53144000  0.16649800  0.32750200  1
  C  473  1  0.44007900  0.09455700  0.31710400  1
  C  474  1  0.41466400  0.08874700  0.34725300  1
  C  475  1  0.39974700  0.04589000  0.33617900  1
  C  476  1  0.41287300  0.00653200  0.29651800  1
  C  477  1  0.43094000  0.01435100  0.26337200  1
  C  478  1  0.44372000  0.05731600  0.27318600  1
  C  485  1  0.52057200  0.63603800  0.85239200  1
  C  486  1  0.48051500  0.61773200  0.83727500  1
  C  487  1  0.45490900  0.63177600  0.81341100  1
  C  488  1  0.46817100  0.66456000  0.80276400  1
  C  489  1  0.50875900  0.68131900  0.81586700  1
  C  490  1  0.53370700  0.66808800  0.84048600  1
  C  493  1  0.44370800  0.67866800  0.77719300  1
  C  494  1  0.41776200  0.64877500  0.74161200  1
  C  495  1  0.40278300  0.65983000  0.70985800  1
  C  496  1  0.41609400  0.69931000  0.70997700  1
  C  497  1  0.43504200  0.73222200  0.75042200  1
  C  498  1  0.44799400  0.72238900  0.78349200  1
  C  505  1  0.01967600  0.35931800  0.21175100  1
  C  506  1  0.97932500  0.37692600  0.21477700  1
  C  507  1  0.95366400  0.36223200  0.17680600  1
  C  508  1  0.96712200  0.32941100  0.13347600  1
  C  509  1  0.00803900  0.31350300  0.12995100  1
  C  510  1  0.03306100  0.32738100  0.16785700  1
  C  513  1  0.94253700  0.31446100  0.09372900  1
  C  514  1  0.91578900  0.34351500  0.08764400  1
  C  515  1  0.90059000  0.33172700  0.04471200  1
  C  516  1  0.91477700  0.29257000  0.00554800  1
  C  517  1  0.93432800  0.26021400  0.01353600  1
  C  518  1  0.94738200  0.27065700  0.05660000  1
  C  525  1  0.01904900  0.85023200  0.63860200  1
  C  526  1  0.97878800  0.83626600  0.62045300  1
  C  527  1  0.95247600  0.81273500  0.63434400  1
  C  528  1  0.96511600  0.80166600  0.66704000  1
  C  529  1  0.00576300  0.81395800  0.68386500  1
  C  530  1  0.03142800  0.83806800  0.67069700  1
  C  533  1  0.94019800  0.77634900  0.68109600  1
  C  534  1  0.91464700  0.74050200  0.65098800  1
  C  535  1  0.89988500  0.70858700  0.66196200  1
  C  536  1  0.91303800  0.70877700  0.70155800  1
  C  537  1  0.93127000  0.74963500  0.73467300  1
  C  538  1  0.94402500  0.78283900  0.72493100  1
  C  545  1  0.02063100  0.78255000  0.14545100  1
  C  546  1  0.98056300  0.77938600  0.16056300  1
  C  547  1  0.95495300  0.81729300  0.18438400  1
  C  548  1  0.96818800  0.86070800  0.19495100  1
  C  549  1  0.00877700  0.86434500  0.18183600  1
  C  550  1  0.03374100  0.82649200  0.15727300  1
  C  553  1  0.94374000  0.90039800  0.22055800  1
  C  554  1  0.91781900  0.90609300  0.25615400  1
  C  555  1  0.90270500  0.94885400  0.28783800  1
  C  556  1  0.91612600  0.98821600  0.28779300  1
  C  557  1  0.93505400  0.98072600  0.24734600  1
  C  558  1  0.94800200  0.93781900  0.21425200  1
  C  565  1  0.47659600  0.85051600  0.21378600  1
  C  566  1  0.51667400  0.83629000  0.21817900  1
  C  567  1  0.54306500  0.81255700  0.18087400  1
  C  568  1  0.53066500  0.80158300  0.13707400  1
  C  569  1  0.49016300  0.81402900  0.13230800  1
  C  570  1  0.46441900  0.83830100  0.16945800  1
  C  573  1  0.55565600  0.77617700  0.09783200  1
  C  574  1  0.58043100  0.73976500  0.09195800  1
  C  575  1  0.59496200  0.70772800  0.04902200  1
  C  576  1  0.58230300  0.70851300  0.00978500  1
  C  577  1  0.56481000  0.74970000  0.01764000  1
  C  578  1  0.55235500  0.78300500  0.06065500  1
  C  585  1  0.47581200  0.78289100  0.63550200  1
  C  586  1  0.51602300  0.77959600  0.61749400  1
  C  587  1  0.54178600  0.81743400  0.63181700  1
  C  588  1  0.52854600  0.86083300  0.66467300  1
  C  589  1  0.48772700  0.86465600  0.68089300  1
  C  590  1  0.46259900  0.82689700  0.66733600  1
  C  593  1  0.55323800  0.90041800  0.67940000  1
  C  594  1  0.57921400  0.90660400  0.64986600  1
  C  595  1  0.59422700  0.94956300  0.66155100  1
  C  596  1  0.58058600  0.98857100  0.70118300  1
  C  597  1  0.56177700  0.98049500  0.73380400  1
  C  598  1  0.54895100  0.93737900  0.72339600  1
  C  605  1  0.47739900  0.35989800  0.14857700  1
  C  606  1  0.51782600  0.37770800  0.16210300  1
  C  607  1  0.54429100  0.36350900  0.18526200  1
  C  608  1  0.53161600  0.33081300  0.19630800  1
  C  609  1  0.49072600  0.31459800  0.18478700  1
  C  610  1  0.46491000  0.32807700  0.16106900  1
  C  613  1  0.55677700  0.31604200  0.22081600  1
  C  614  1  0.58248500  0.34569800  0.25672800  1
  C  615  1  0.59713300  0.33407300  0.28821000  1
  C  616  1  0.58361200  0.29432000  0.28748400  1
  C  617  1  0.56540900  0.26159300  0.24642300  1
  C  618  1  0.55281200  0.27195300  0.21361600  1
  C  625  1  0.94940200  0.54599800  0.61001200  1
  C  626  1  0.99108900  0.53102000  0.60061500  1
  C  627  1  0.00807300  0.51163200  0.55700700  1
  C  628  1  0.98433800  0.50576300  0.51988400  1
  C  629  1  0.94205500  0.51752200  0.52833600  1
  C  630  1  0.92512300  0.53637900  0.57176000  1
  C  633  1  0.00173900  0.48806100  0.47555700  1
  C  634  1  0.04231100  0.49810600  0.46767800  1
  C  635  1  0.05934100  0.47804600  0.42393300  1
  C  636  1  0.03694700  0.44667400  0.38534800  1
  C  637  1  0.99563300  0.43866700  0.39384100  1
  C  638  1  0.97863600  0.45843500  0.43718400  1
  C  645  1  0.95820800  0.05855900  0.44809700  1
  C  646  1  0.99944100  0.04185000  0.43999100  1
  C  647  1  0.01638100  0.01837100  0.45988100  1
  C  648  1  0.99332800  0.01002500  0.48982000  1
  C  649  1  0.95285200  0.02822700  0.49999300  1
  C  650  1  0.93585100  0.05175000  0.47974500  1
  C  653  1  0.01070100  0.98356600  0.50773700  1
  C  654  1  0.05309300  0.98650800  0.51901000  1
  C  655  1  0.07001100  0.96211900  0.53806400  1
  C  656  1  0.04569000  0.93391200  0.54822900  1
  C  657  1  0.00384800  0.92871700  0.53379400  1
  C  658  1  0.98684600  0.95280900  0.51427200  1
  C  665  1  0.95083400  0.38453900  0.93495800  1
  C  666  1  0.99256100  0.39388600  0.92945000  1
  C  667  1  0.00961700  0.43746000  0.95372400  1
  C  668  1  0.98591400  0.47460600  0.98497300  1
  C  669  1  0.94363800  0.46621200  0.98835800  1
  C  670  1  0.92665700  0.42281800  0.96377100  1
  C  673  1  0.00329800  0.51894800  0.01144200  1
  C  674  1  0.04380300  0.52695800  0.02955200  1
  C  675  1  0.06080400  0.57073000  0.05304700  1
  C  676  1  0.03845100  0.60916800  0.05978700  1
  C  677  1  0.99721800  0.60055300  0.04305300  1
  C  678  1  0.98023700  0.55719900  0.01972800  1
  C  685  1  0.53702700  0.05958600  0.61236200  1
  C  686  1  0.49583400  0.04276300  0.60383900  1
  C  687  1  0.47881000  0.01937200  0.56050000  1
  C  688  1  0.50177000  0.01120800  0.52222300  1
  C  689  1  0.54218400  0.02955200  0.53019200  1
  C  690  1  0.55924800  0.05305300  0.57392700  1
  C  693  1  0.48439700  0.98472500  0.47787000  1
  C  694  1  0.44205800  0.98781700  0.46947900  1
  C  695  1  0.42519000  0.96342600  0.42600600  1
  C  696  1  0.44951100  0.93500000  0.38771100  1
  C  697  1  0.49126900  0.92962600  0.39706400  1
  C  698  1  0.50823700  0.95377500  0.44068200  1
  C  705  1  0.54585000  0.38478200  0.44987500  1
  C  706  1  0.50403300  0.39401700  0.46441000  1
  C  707  1  0.48699500  0.43760600  0.48386200  1
  C  708  1  0.51078800  0.47487300  0.49022100  1
  C  709  1  0.55315800  0.46654700  0.47884900  1
  C  710  1  0.57015000  0.42314900  0.45996400  1
  C  713  1  0.49337200  0.51921900  0.50805500  1
  C  714  1  0.45285200  0.52718200  0.49793600  1
  C  715  1  0.43582900  0.57094000  0.51811300  1
  C  716  1  0.45819500  0.60943900  0.54967100  1
  C  717  1  0.49947200  0.60089500  0.55772500  1
  C  718  1  0.51643300  0.55754200  0.53789000  1
  C  725  1  0.53843500  0.54853300  0.93825200  1
  C  726  1  0.49726700  0.55675700  0.95516600  1
  C  727  1  0.48029900  0.53668600  0.97845800  1
  C  728  1  0.50333900  0.50658500  0.98656500  1
  C  729  1  0.54378400  0.49639200  0.96830300  1
  C  730  1  0.56076100  0.51673000  0.94485600  1
  C  733  1  0.48599100  0.48864300  0.01298500  1
  C  734  1  0.44369500  0.47695000  0.00968700  1
  C  735  1  0.42678300  0.45797400  0.03415000  1
  C  736  1  0.45099900  0.44845100  0.06289600  1
  C  737  1  0.49273900  0.46324900  0.06834600  1
  C  738  1  0.50975600  0.48261000  0.04411300  1
