# generated using pymatgen
data_H11C15N4O3
_symmetry_space_group_name_H-M   'P 1'
_cell_length_a   25.97630000
_cell_length_b   25.97630000
_cell_length_c   27.16780000
_cell_angle_alpha   90.00000000
_cell_angle_beta   90.00000000
_cell_angle_gamma   120.00000000
_symmetry_Int_Tables_number   1
_chemical_formula_structural   H11C15N4O3
_chemical_formula_sum   'H66 C90 N24 O18'
_cell_volume   15875.94865842
_cell_formula_units_Z   6
loop_
 _symmetry_equiv_pos_site_id
 _symmetry_equiv_pos_as_xyz
  1  'x, y, z'
loop_
 _atom_site_type_symbol
 _atom_site_label
 _atom_site_symmetry_multiplicity
 _atom_site_fract_x
 _atom_site_fract_y
 _atom_site_fract_z
 _atom_site_occupancy
  C  1  1  0.42507900  0.48126900  0.98824000  1
  C  2  1  0.39150150  0.48171550  0.02954000  1
  C  3  1  0.35922650  0.51220750  0.02916100  1
  C  4  1  0.36732900  0.54947400  0.98865300  1
  C  5  1  0.40157150  0.55245050  0.94732200  1
  C  6  1  0.42642000  0.51464800  0.94591000  1
  C  9  1  0.45415050  0.44677850  0.98966300  1
  C  10  1  0.48599400  0.44517200  0.03204600  1
  C  11  1  0.51732250  0.41334750  0.03163000  1
  C  12  1  0.50841150  0.37534950  0.99141900  1
  C  13  1  0.47511600  0.37323200  0.94974900  1
  C  14  1  0.45173100  0.41194100  0.94830400  1
  C  25  1  0.96953350  0.47514250  0.32156500  1
  C  26  1  0.00356450  0.50871550  0.36286800  1
  C  27  1  0.06632800  0.54098000  0.36248100  1
  C  28  1  0.09548650  0.53287950  0.32196600  1
  C  29  1  0.06421350  0.49862850  0.28064600  1
  C  30  1  0.00156200  0.47378500  0.27923600  1
  C  33  1  0.90597350  0.44607350  0.32299300  1
  C  34  1  0.87252750  0.41420950  0.36537400  1
  C  35  1  0.80937350  0.38286750  0.36495100  1
  C  36  1  0.78028050  0.39177850  0.32474600  1
  C  37  1  0.81145600  0.42510400  0.28308600  1
  C  38  1  0.87355400  0.44851000  0.28164300  1
  C  49  1  0.41894200  0.93067900  0.65491800  1
  C  50  1  0.41845450  0.89663850  0.69622400  1
  C  51  1  0.38792650  0.83387450  0.69584300  1
  C  52  1  0.35066700  0.80472700  0.65532800  1
  C  53  1  0.34772600  0.83600500  0.61399200  1
  C  54  1  0.38556150  0.89865350  0.61258200  1
  C  57  1  0.45346100  0.99423800  0.65634200  1
  C  58  1  0.45507950  0.02769950  0.69872300  1
  C  59  1  0.48692950  0.09085350  0.69830100  1
  C  60  1  0.52492700  0.11992700  0.65808800  1
  C  61  1  0.52704050  0.08873450  0.61642500  1
  C  62  1  0.48832000  0.02664400  0.61498600  1
  C  73  1  0.48506150  0.20721450  0.77891400  1
  C  75  1  0.46773250  0.20200950  0.86588200  1
  C  76  1  0.47280750  0.25869150  0.86571300  1
  C  78  1  0.49084150  0.26484150  0.77824400  1
  C  79  1  0.50345800  0.29974000  0.73626000  1
  C  83  1  0.48849350  0.29065350  0.65085100  1
  C  84  1  0.44009750  0.25224350  0.61318200  1
  C  90  1  0.49387800  0.17973600  0.73759000  1
  C  92  1  0.47162650  0.28707550  0.90936300  1
  C  94  1  0.63569400  0.41540400  0.11216700  1
  C  96  1  0.64760700  0.43244400  0.19918500  1
  C  97  1  0.69926400  0.42746500  0.19902700  1
  C  99  1  0.68764050  0.40978250  0.11149300  1
  C  100  1  0.71019100  0.39741300  0.06960600  1
  C  104  1  0.71367850  0.40970950  0.98382800  1
  C  105  1  0.72149900  0.45658100  0.94535200  1
  C  111  1  0.59930850  0.40647650  0.07089000  1
  C  113  1  0.72876000  0.42854000  0.24268900  1
  C  115  1  0.69307050  0.26447050  0.44549100  1
  C  117  1  0.69825100  0.25252400  0.53249500  1
  C  118  1  0.64159600  0.20089000  0.53235100  1
  C  120  1  0.63548950  0.21254650  0.44482900  1
  C  121  1  0.60052700  0.19003300  0.40295600  1
  C  125  1  0.60924950  0.18661950  0.31716300  1
  C  126  1  0.64824850  0.17881550  0.27862500  1
  C  132  1  0.72053100  0.30085300  0.40421100  1
  C  134  1  0.61319350  0.17139150  0.57601700  1
  C  136  1  0.39122250  0.71884950  0.77702300  1
  C  138  1  0.40702800  0.72348100  0.86419800  1
  C  139  1  0.40280900  0.66717300  0.86395400  1
  C  141  1  0.38631650  0.66159350  0.77627900  1
  C  142  1  0.37491700  0.62713300  0.73416000  1
  C  146  1  0.39126950  0.63711950  0.64893000  1
  C  147  1  0.44002850  0.67637450  0.61182000  1
  C  153  1  0.38255600  0.74626200  0.73558000  1
  C  155  1  0.40372200  0.63858300  0.90755800  1
  C  157  1  0.24073250  0.50868750  0.11025700  1
  C  159  1  0.22974250  0.49313350  0.19747000  1
  C  160  1  0.17760800  0.49727000  0.19724200  1
  C  162  1  0.18830600  0.51346700  0.10951300  1
  C  163  1  0.16500650  0.52466150  0.06749600  1
  C  167  1  0.16099350  0.51101650  0.98186500  1
  C  168  1  0.15358100  0.46378800  0.94391500  1
  C  174  1  0.27689700  0.51744900  0.06885800  1
  C  176  1  0.14818700  0.49646400  0.24086300  1
  C  178  1  0.18132300  0.65932100  0.44366600  1
  C  180  1  0.17667850  0.67048750  0.53083900  1
  C  181  1  0.23299000  0.72256700  0.53060700  1
  C  183  1  0.23858400  0.71166800  0.44292900  1
  C  184  1  0.27305550  0.73472550  0.40081700  1
  C  188  1  0.26309400  0.74113800  0.31558800  1
  C  189  1  0.22387900  0.75070300  0.27848100  1
  C  195  1  0.15392500  0.62324500  0.40221600  1
  C  197  1  0.26157450  0.75205850  0.57421300  1
  H  7  1  0.38510550  0.45422850  0.05871800  1
  H  8  1  0.34660400  0.57397100  0.98854300  1
  H  15  1  0.52828700  0.35005900  0.99153500  1
  H  16  1  0.42640400  0.40905600  0.91847700  1
  H  19  1  0.43655400  0.50218200  0.87856700  1
  H  20  1  0.47702900  0.46000300  0.09908200  1
  H  31  1  0.98247850  0.51510750  0.39204900  1
  H  32  1  0.14070700  0.55359400  0.32186000  1
  H  39  1  0.73511600  0.37189000  0.32486000  1
  H  40  1  0.89599450  0.47385150  0.25182100  1
  H  43  1  0.97894650  0.46364050  0.21189900  1
  H  44  1  0.89632550  0.42316050  0.43240600  1
  H  55  1  0.44593300  0.91771600  0.72540700  1
  H  56  1  0.32614350  0.75950650  0.65521900  1
  H  63  1  0.55023050  0.16508950  0.65820300  1
  H  64  1  0.49120150  0.00419150  0.58516700  1
  H  67  1  0.39805800  0.92125400  0.54524200  1
  H  68  1  0.44024150  0.00391150  0.76575900  1
  H  80  1  0.45993150  0.17812150  0.89761700  1
  H  85  1  0.52575750  0.28259450  0.64625500  1
  H  86  1  0.50406250  0.33752850  0.64316300  1
  H  87  1  0.42437550  0.20521150  0.61983000  1
  H  88  1  0.45809800  0.26345400  0.57591800  1
  H  89  1  0.40265050  0.26003350  0.61621900  1
  H  91  1  0.50880550  0.20412050  0.70620000  1
  H  93  1  0.47202150  0.26758950  0.94197600  1
  H  101  1  0.63140350  0.44007350  0.23093200  1
  H  106  1  0.66860800  0.37167800  0.98036100  1
  H  107  1  0.74550150  0.39484450  0.97596400  1
  H  108  1  0.68963300  0.47155900  0.95218500  1
  H  109  1  0.71397150  0.43749150  0.90844800  1
  H  110  1  0.76643750  0.49473150  0.94725200  1
  H  112  1  0.60874850  0.39155650  0.03950000  1
  H  114  1  0.70881850  0.42804650  0.27529700  1
  H  122  1  0.72210750  0.26870550  0.56423500  1
  H  127  1  0.61630350  0.23170050  0.31374400  1
  H  128  1  0.56254950  0.15481750  0.30931900  1
  H  129  1  0.69510350  0.21065850  0.28543400  1
  H  130  1  0.63665750  0.18638350  0.24174700  1
  H  131  1  0.64144200  0.13386600  0.28047600  1
  H  133  1  0.69614600  0.29145700  0.37283900  1
  H  135  1  0.63266300  0.19132800  0.60861800  1
  H  143  1  0.41394850  0.74699650  0.89603200  1
  H  148  1  0.35361050  0.64447850  0.64391100  1
  H  149  1  0.37653550  0.59046050  0.64106400  1
  H  150  1  0.45492650  0.72320150  0.61864800  1
  H  151  1  0.42269300  0.66526300  0.57435300  1
  H  152  1  0.47789450  0.66930350  0.61528400  1
  H  154  1  0.36827300  0.72192900  0.70411400  1
  H  156  1  0.40261000  0.65758200  0.94022800  1
  H  164  1  0.24643700  0.48636000  0.22931300  1
  H  169  1  0.20577050  0.54942050  0.97796700  1
  H  170  1  0.12859350  0.52509150  0.97384200  1
  H  171  1  0.18601900  0.44958400  0.95090700  1
  H  172  1  0.16054450  0.48223350  0.90680200  1
  H  173  1  0.10892700  0.42524200  0.94625000  1
  H  175  1  0.26690200  0.53177800  0.03740600  1
  H  177  1  0.16836050  0.49767750  0.27351900  1
  H  185  1  0.15315450  0.65388650  0.56267000  1
  H  190  1  0.25570400  0.69611200  0.31055200  1
  H  191  1  0.30976600  0.77304400  0.30773600  1
  H  192  1  0.17704300  0.71879800  0.28529400  1
  H  193  1  0.23499350  0.74448950  0.24101000  1
  H  194  1  0.23098550  0.79565150  0.28196300  1
  H  196  1  0.17826150  0.63329950  0.37075600  1
  H  198  1  0.24256500  0.73194700  0.60688100  1
  N  21  1  0.46688800  0.33684200  0.91077900  1
  N  22  1  0.55624150  0.42160350  0.06871800  1
  N  23  1  0.40943000  0.58937500  0.90879700  1
  N  24  1  0.32067250  0.50330250  0.06666800  1
  N  45  1  0.78329450  0.43335050  0.24412400  1
  N  46  1  0.77872050  0.34393050  0.40203200  1
  N  47  1  0.09325800  0.49072900  0.24212600  1
  N  48  1  0.09599350  0.57949850  0.40000700  1
  N  69  1  0.56344350  0.11687850  0.57745600  1
  N  70  1  0.47871600  0.12153300  0.73539800  1
  N  71  1  0.31080250  0.80696050  0.57546100  1
  N  72  1  0.39675900  0.80419800  0.73337200  1
  N  74  1  0.47332450  0.17859450  0.82294800  1
  N  77  1  0.48382050  0.28698750  0.82171000  1
  N  95  1  0.61866850  0.42692050  0.15622600  1
  N  98  1  0.71668250  0.41666450  0.15500400  1
  N  116  1  0.72164900  0.28146900  0.48953600  1
  N  119  1  0.61334600  0.18350000  0.48834000  1
  N  137  1  0.40180050  0.74702450  0.82119600  1
  N  140  1  0.39296100  0.63934500  0.81982200  1
  N  158  1  0.25845300  0.49829700  0.15444900  1
  N  161  1  0.15952750  0.50694750  0.15309400  1
  N  179  1  0.15314200  0.64172200  0.48783500  1
  N  182  1  0.26082800  0.74055200  0.48647700  1
  O  17  1  0.46254900  0.52081200  0.90717800  1
  O  18  1  0.49700200  0.48403200  0.06980800  1
  O  41  1  0.97158650  0.43765050  0.24051000  1
  O  42  1  0.90038400  0.40319500  0.40312500  1
  O  65  1  0.37943150  0.92863250  0.57384900  1
  O  66  1  0.41621650  0.99986550  0.73648400  1
  O  81  1  0.52559750  0.35350450  0.74193400  1
  O  82  1  0.46364350  0.27538950  0.69977800  1
  O  102  1  0.74342700  0.37704700  0.07492400  1
  O  103  1  0.72423100  0.43599300  0.03226400  1
  O  123  1  0.54692650  0.15680850  0.40830000  1
  O  124  1  0.62502000  0.17601200  0.36556600  1
  O  144  1  0.35343000  0.57340900  0.73958000  1
  O  145  1  0.41525200  0.65226900  0.69813600  1
  O  165  1  0.13120750  0.54439850  0.07259100  1
  O  166  1  0.15118750  0.48556950  0.03058900  1
  O  186  1  0.32678300  0.76693900  0.40624600  1
  O  187  1  0.24794350  0.74996150  0.36479700  1
