# generated using pymatgen
data_CdH11C17N3O4
_symmetry_space_group_name_H-M   'P 1'
_cell_length_a   13.85234000
_cell_length_b   17.99644000
_cell_length_c   17.99611891
_cell_angle_alpha   113.60794049
_cell_angle_beta   104.88036323
_cell_angle_gamma   104.83805000
_symmetry_Int_Tables_number   1
_chemical_formula_structural   CdH11C17N3O4
_chemical_formula_sum   'Cd6 H66 C102 N18 O24'
_cell_volume   3632.01445369
_cell_formula_units_Z   6
loop_
 _symmetry_equiv_pos_site_id
 _symmetry_equiv_pos_as_xyz
  1  'x, y, z'
loop_
 _atom_site_type_symbol
 _atom_site_label
 _atom_site_symmetry_multiplicity
 _atom_site_fract_x
 _atom_site_fract_y
 _atom_site_fract_z
 _atom_site_occupancy
  Cd  Cd0  1  0.55416000  0.63188000  0.40493000  1
  Cd  Cd1  1  0.92197000  0.77338000  0.36837000  1
  Cd  Cd2  1  0.14879000  0.59533000  0.22698000  1
  Cd  Cd3  1  0.44584000  0.36811000  0.59507000  1
  Cd  Cd4  1  0.07803000  0.22662000  0.63163000  1
  Cd  Cd5  1  0.85122000  0.40467000  0.77302000  1
  H  H6  1  0.77307000  0.96841000  0.49746000  1
  H  H7  1  0.49995000  0.93949000  0.57459000  1
  H  H8  1  0.45035000  0.77646000  0.49862000  1
  H  H9  1  0.63664000  0.08106000  0.70017000  1
  H  H10  1  0.73472000  0.08221000  0.48880000  1
  H  H11  1  0.80705000  0.24579000  0.57323000  1
  H  H12  1  0.79957000  0.74054000  0.55009000  1
  H  H13  1  0.91846000  0.78219000  0.70335000  1
  H  H14  1  0.83340000  0.72432000  0.78788000  1
  H  H15  1  0.63063000  0.62604000  0.71302000  1
  H  H16  1  0.52566000  0.59129000  0.56079000  1
  H  H17  1  0.80420000  0.52913000  0.03156000  1
  H  H18  1  0.56005000  0.63535000  0.06068000  1
  H  H19  1  0.67351000  0.72231000  0.22349000  1
  H  H20  1  0.55520000  0.61902000  0.91813000  1
  H  H21  1  0.65235000  0.40672000  0.91779000  1
  H  H22  1  0.56120000  0.32774000  0.75438000  1
  H  H23  1  0.05843000  0.80944000  0.25959000  1
  H  H24  1  0.13586000  0.92089000  0.21766000  1
  H  H25  1  0.10909000  0.06344000  0.27583000  1
  H  H26  1  0.00450000  0.08680000  0.37410000  1
  H  H27  1  0.93367000  0.96935000  0.40888000  1
  H  H28  1  0.27566000  0.50240000  0.47093000  1
  H  H29  1  0.92546000  0.42590000  0.36455000  1
  H  H30  1  0.95247000  0.50159000  0.27741000  1
  H  H31  1  0.93636000  0.29994000  0.38119000  1
  H  H32  1  0.24542000  0.51103000  0.59364000  1
  H  H33  1  0.23344000  0.42609000  0.67222000  1
  H  H34  1  0.24960000  0.45040000  0.19060000  1
  H  H35  1  0.21533000  0.29706000  0.07932000  1
  H  H36  1  0.04592000  0.21280000  0.93705000  1
  H  H37  1  0.91798000  0.28777000  0.91363000  1
  H  H38  1  0.96499000  0.43994000  0.03090000  1
  H  H39  1  0.22694000  0.03159000  0.50254000  1
  H  H40  1  0.50005000  0.06050000  0.42541000  1
  H  H41  1  0.54965000  0.22354000  0.50138000  1
  H  H42  1  0.36336000  0.91892000  0.29982000  1
  H  H43  1  0.26528000  0.91779000  0.51120000  1
  H  H44  1  0.19295000  0.75421000  0.42677000  1
  H  H45  1  0.20044000  0.25946000  0.44991000  1
  H  H46  1  0.08153000  0.21780000  0.29664000  1
  H  H47  1  0.16660000  0.27568000  0.21212000  1
  H  H48  1  0.36937000  0.37395000  0.28697000  1
  H  H49  1  0.47434000  0.40871000  0.43921000  1
  H  H50  1  0.19581000  0.47086000  0.96844000  1
  H  H51  1  0.43996000  0.36465000  0.93932000  1
  H  H52  1  0.32649000  0.27769000  0.77651000  1
  H  H53  1  0.44480000  0.38098000  0.08187000  1
  H  H54  1  0.34766000  0.59328000  0.08221000  1
  H  H55  1  0.43880000  0.67225000  0.24562000  1
  H  H56  1  0.94157000  0.19055000  0.74041000  1
  H  H57  1  0.86415000  0.07911000  0.78234000  1
  H  H58  1  0.89091000  0.93656000  0.72417000  1
  H  H59  1  0.99551000  0.91320000  0.62590000  1
  H  H60  1  0.06633000  0.03065000  0.59112000  1
  H  H61  1  0.72434000  0.49760000  0.52907000  1
  H  H62  1  0.07454000  0.57409000  0.63545000  1
  H  H63  1  0.04753000  0.49840000  0.72258000  1
  H  H64  1  0.06365000  0.70006000  0.61881000  1
  H  H65  1  0.75457000  0.48896000  0.40635000  1
  H  H66  1  0.76656000  0.57391000  0.32778000  1
  H  H67  1  0.75041000  0.54960000  0.80940000  1
  H  H68  1  0.78466000  0.70293000  0.92067000  1
  H  H69  1  0.95408000  0.78720000  0.06295000  1
  H  H70  1  0.08203000  0.71223000  0.08637000  1
  H  H71  1  0.03501000  0.56006000  0.96910000  1
  C  C72  1  0.66809000  0.83804000  0.46016000  1
  C  C73  1  0.70021000  0.92945000  0.49921000  1
  C  C74  1  0.64103000  0.96890000  0.54232000  1
  C  C75  1  0.54983000  0.91302000  0.54292000  1
  C  C76  1  0.52152000  0.82179000  0.50051000  1
  C  C77  1  0.73497000  0.79564000  0.41749000  1
  C  C78  1  0.71717000  0.20613000  0.71191000  1
  C  C79  1  0.67141000  0.11340000  0.66766000  1
  C  C80  1  0.67802000  0.06626000  0.58684000  1
  C  C81  1  0.72611000  0.11427000  0.55098000  1
  C  C82  1  0.76714000  0.20626000  0.59791000  1
  C  C83  1  0.71944000  0.25957000  0.80403000  1
  C  C84  1  0.76626000  0.71732000  0.58926000  1
  C  C85  1  0.83173000  0.74034000  0.67468000  1
  C  C86  1  0.78412000  0.70774000  0.72112000  1
  C  C87  1  0.67277000  0.65328000  0.68044000  1
  C  C88  1  0.61283000  0.63313000  0.59459000  1
  C  C89  1  0.82976000  0.62226000  0.16205000  1
  C  C90  1  0.77038000  0.56985000  0.07061000  1
  C  C91  1  0.67175000  0.57355000  0.03107000  1
  C  C92  1  0.63640000  0.63002000  0.08693000  1
  C  C93  1  0.69932000  0.67882000  0.17816000  1
  C  C94  1  0.93931000  0.62229000  0.20457000  1
  C  C95  1  0.51089000  0.50579000  0.79350000  1
  C  C96  1  0.55772000  0.55422000  0.88621000  1
  C  C97  1  0.61146000  0.52070000  0.93366000  1
  C  C98  1  0.61177000  0.43695000  0.88576000  1
  C  C99  1  0.56081000  0.39189000  0.79377000  1
  C  C100  1  0.46034000  0.54478000  0.74008000  1
  C  C101  1  0.04850000  0.87187000  0.28279000  1
  C  C102  1  0.09107000  0.93415000  0.25964000  1
  C  C103  1  0.07623000  0.01324000  0.29238000  1
  C  C104  1  0.01927000  0.02696000  0.34685000  1
  C  C105  1  0.97922000  0.96139000  0.36709000  1
  C  C106  1  0.20838000  0.53963000  0.37761000  1
  C  C107  1  0.20114000  0.50076000  0.43021000  1
  C  C108  1  0.09879000  0.45786000  0.42664000  1
  C  C109  1  0.00718000  0.45739000  0.37000000  1
  C  C110  1  0.02154000  0.49963000  0.32104000  1
  C  C111  1  0.31793000  0.58197000  0.37754000  1
  C  C112  1  0.00497000  0.28798000  0.49431000  1
  C  C113  1  0.00361000  0.33242000  0.44594000  1
  C  C114  1  0.09097000  0.41320000  0.47947000  1
  C  C115  1  0.17471000  0.44884000  0.56332000  1
  C  C116  1  0.16892000  0.40157000  0.60812000  1
  C  C117  1  0.91483000  0.19601000  0.45558000  1
  C  C118  1  0.17718000  0.41126000  0.12830000  1
  C  C119  1  0.15733000  0.32585000  0.06610000  1
  C  C120  1  0.06334000  0.27953000  0.98713000  1
  C  C121  1  0.99268000  0.32030000  0.97338000  1
  C  C122  1  0.01843000  0.40610000  0.03888000  1
  C  C123  1  0.33191000  0.16195000  0.53983000  1
  C  C124  1  0.29979000  0.07054000  0.50078000  1
  C  C125  1  0.35898000  0.03110000  0.45768000  1
  C  C126  1  0.45017000  0.08698000  0.45708000  1
  C  C127  1  0.47848000  0.17821000  0.49949000  1
  C  C128  1  0.26504000  0.20436000  0.58251000  1
  C  C129  1  0.28284000  0.79387000  0.28809000  1
  C  C130  1  0.32859000  0.88659000  0.33233000  1
  C  C131  1  0.32199000  0.93374000  0.41316000  1
  C  C132  1  0.27389000  0.88573000  0.44902000  1
  C  C133  1  0.23287000  0.79373000  0.40209000  1
  C  C134  1  0.28057000  0.74042000  0.19597000  1
  C  C135  1  0.23374000  0.28268000  0.41074000  1
  C  C136  1  0.16828000  0.25966000  0.32532000  1
  C  C137  1  0.21589000  0.29226000  0.27888000  1
  C  C138  1  0.32722000  0.34671000  0.31955000  1
  C  C139  1  0.38717000  0.36687000  0.40541000  1
  C  C140  1  0.17024000  0.37774000  0.83795000  1
  C  C141  1  0.22962000  0.43015000  0.92939000  1
  C  C142  1  0.32826000  0.42645000  0.96893000  1
  C  C143  1  0.36360000  0.36997000  0.91306000  1
  C  C144  1  0.30069000  0.32118000  0.82184000  1
  C  C145  1  0.06068000  0.37770000  0.79542000  1
  C  C146  1  0.48911000  0.49421000  0.20650000  1
  C  C147  1  0.44228000  0.44578000  0.11379000  1
  C  C148  1  0.38854000  0.47929000  0.06633000  1
  C  C149  1  0.38824000  0.56304000  0.11424000  1
  C  C150  1  0.43920000  0.60811000  0.20623000  1
  C  C151  1  0.53966000  0.45522000  0.25992000  1
  C  C152  1  0.95151000  0.12813000  0.71721000  1
  C  C153  1  0.90894000  0.06585000  0.74036000  1
  C  C154  1  0.92377000  0.98676000  0.70762000  1
  C  C155  1  0.98072000  0.97303000  0.65314000  1
  C  C156  1  0.02079000  0.03861000  0.63291000  1
  C  C157  1  0.79162000  0.46037000  0.62239000  1
  C  C158  1  0.79886000  0.49923000  0.56979000  1
  C  C159  1  0.90121000  0.54214000  0.57336000  1
  C  C160  1  0.99283000  0.54261000  0.63000000  1
  C  C161  1  0.97846000  0.50037000  0.67896000  1
  C  C162  1  0.68207000  0.41802000  0.62245000  1
  C  C163  1  0.99504000  0.71202000  0.50569000  1
  C  C164  1  0.99639000  0.66758000  0.55406000  1
  C  C165  1  0.90903000  0.58680000  0.52053000  1
  C  C166  1  0.82530000  0.55116000  0.43668000  1
  C  C167  1  0.83108000  0.59843000  0.39188000  1
  C  C168  1  0.08517000  0.80399000  0.54442000  1
  C  C169  1  0.82282000  0.58874000  0.87170000  1
  C  C170  1  0.84267000  0.67415000  0.93390000  1
  C  C171  1  0.93667000  0.72047000  0.01287000  1
  C  C172  1  0.00733000  0.67970000  0.02662000  1
  C  C173  1  0.98157000  0.59389000  0.96111000  1
  N  N174  1  0.57994000  0.78472000  0.46059000  1
  N  N175  1  0.76417000  0.25085000  0.67702000  1
  N  N176  1  0.65860000  0.66464000  0.54971000  1
  N  N177  1  0.79485000  0.67601000  0.21529000  1
  N  N178  1  0.51313000  0.42621000  0.74892000  1
  N  N179  1  0.99352000  0.88504000  0.33551000  1
  N  N180  1  0.11991000  0.53943000  0.32394000  1
  N  N181  1  0.08689000  0.32254000  0.57375000  1
  N  N182  1  0.10911000  0.45091000  0.11517000  1
  N  N183  1  0.42007000  0.21528000  0.53941000  1
  N  N184  1  0.23583000  0.74915000  0.32298000  1
  N  N185  1  0.34140000  0.33536000  0.45029000  1
  N  N186  1  0.20516000  0.32399000  0.78471000  1
  N  N187  1  0.48688000  0.57379000  0.25108000  1
  N  N188  1  0.00648000  0.11496000  0.66449000  1
  N  N189  1  0.88010000  0.46057000  0.67606000  1
  N  N190  1  0.91312000  0.67746000  0.42625000  1
  N  N191  1  0.89090000  0.54909000  0.88483000  1
  O  O192  1  0.71348000  0.71485000  0.39353000  1
  O  O193  1  0.81070000  0.84598000  0.40999000  1
  O  O194  1  0.78148000  0.34341000  0.84802000  1
  O  O195  1  0.66257000  0.21764000  0.82931000  1
  O  O196  1  0.99915000  0.68000000  0.28500000  1
  O  O197  1  0.96433000  0.56381000  0.15469000  1
  O  O198  1  0.43708000  0.50427000  0.65600000  1
  O  O199  1  0.44769000  0.61310000  0.78241000  1
  O  O200  1  0.32051000  0.60641000  0.32101000  1
  O  O201  1  0.40103000  0.58890000  0.43508000  1
  O  O202  1  0.93160000  0.15240000  0.49622000  1
  O  O203  1  0.83361000  0.17070000  0.38770000  1
  O  O204  1  0.28653000  0.28515000  0.60647000  1
  O  O205  1  0.18931000  0.15401000  0.59001000  1
  O  O206  1  0.21851000  0.65658000  0.15197000  1
  O  O207  1  0.33743000  0.78236000  0.17069000  1
  O  O208  1  0.00086000  0.31999000  0.71500000  1
  O  O209  1  0.03568000  0.43619000  0.84531000  1
  O  O210  1  0.56292000  0.49573000  0.34400000  1
  O  O211  1  0.55232000  0.38690000  0.21759000  1
  O  O212  1  0.67950000  0.39359000  0.67899000  1
  O  O213  1  0.59896000  0.41109000  0.56491000  1
  O  O214  1  0.06839000  0.84758000  0.50377000  1
  O  O215  1  0.16639000  0.82929000  0.61230000  1
