# generated using pymatgen
data_H4C10N2O3
_symmetry_space_group_name_H-M   'P 1'
_cell_length_a   29.47330000
_cell_length_b   29.47330000
_cell_length_c   29.47330000
_cell_angle_alpha   90.00000000
_cell_angle_beta   90.00000000
_cell_angle_gamma   90.00000000
_symmetry_Int_Tables_number   1
_chemical_formula_structural   H4C10N2O3
_chemical_formula_sum   'H96 C240 N48 O72'
_cell_volume   25602.73104673
_cell_formula_units_Z   24
loop_
 _symmetry_equiv_pos_site_id
 _symmetry_equiv_pos_as_xyz
  1  'x, y, z'
loop_
 _atom_site_type_symbol
 _atom_site_label
 _atom_site_symmetry_multiplicity
 _atom_site_fract_x
 _atom_site_fract_y
 _atom_site_fract_z
 _atom_site_occupancy
  H  8  1  0.21927700  0.37238800  0.26763700  1
  H  10  1  0.37224200  0.26745600  0.21954900  1
  H  12  1  0.26731600  0.21930800  0.37257400  1
  H  20  1  0.27099900  0.61794200  0.76771900  1
  H  22  1  0.11791300  0.72273200  0.71961400  1
  H  24  1  0.22285300  0.77093200  0.87264400  1
  H  32  1  0.77106400  0.87243700  0.22251600  1
  H  34  1  0.61808500  0.76765700  0.27079900  1
  H  36  1  0.72289800  0.71929200  0.11775300  1
  H  44  1  0.71920300  0.11803300  0.72280300  1
  H  46  1  0.87244000  0.22263100  0.77068700  1
  H  48  1  0.76754900  0.27087600  0.61767100  1
  H  56  1  0.77096600  0.61781700  0.72253500  1
  H  58  1  0.61803100  0.72274900  0.77077600  1
  H  60  1  0.72296600  0.77105400  0.61779600  1
  H  68  1  0.71920000  0.37237100  0.22256500  1
  H  70  1  0.87225400  0.26756500  0.27068500  1
  H  72  1  0.76748400  0.21939500  0.11758800  1
  H  80  1  0.21934000  0.11787000  0.76772900  1
  H  82  1  0.37222500  0.22291000  0.71957000  1
  H  84  1  0.26723700  0.27106900  0.87256600  1
  H  92  1  0.27120400  0.87236200  0.26774900  1
  H  94  1  0.11808000  0.76765100  0.21967300  1
  H  96  1  0.22288100  0.71939000  0.37271700  1
  H  103  1  0.06904700  0.47237000  0.36245700  1
  H  104  1  0.19684000  0.42572800  0.32204800  1
  H  105  1  0.08578100  0.33705400  0.32313600  1
  H  118  1  0.42114700  0.51809900  0.86274400  1
  H  119  1  0.29342900  0.56470400  0.82220500  1
  H  120  1  0.40448800  0.65343500  0.82325000  1
  H  133  1  0.92130200  0.97237200  0.12773100  1
  H  134  1  0.79348100  0.92567500  0.16803900  1
  H  135  1  0.90454700  0.83702900  0.16705700  1
  H  148  1  0.56903400  0.01814900  0.62775800  1
  H  149  1  0.69679300  0.06472900  0.66842200  1
  H  150  1  0.58581800  0.15347800  0.66708200  1
  H  163  1  0.36268100  0.06926800  0.47241700  1
  H  164  1  0.32166500  0.19692700  0.42587700  1
  H  165  1  0.32330700  0.08597500  0.33710300  1
  H  178  1  0.86277700  0.42103900  0.51789200  1
  H  179  1  0.82198500  0.29327500  0.56438500  1
  H  180  1  0.82334900  0.40422700  0.65316400  1
  H  193  1  0.12763100  0.92105400  0.97247300  1
  H  194  1  0.16840400  0.79334200  0.92597400  1
  H  195  1  0.16706200  0.90430700  0.83717800  1
  H  208  1  0.62751400  0.56925400  0.01799800  1
  H  209  1  0.66849700  0.69688500  0.06445000  1
  H  210  1  0.66687100  0.58597800  0.15335100  1
  H  223  1  0.47203100  0.36267700  0.06941300  1
  H  224  1  0.42553400  0.32193500  0.19709900  1
  H  225  1  0.33669500  0.32325800  0.08614000  1
  H  238  1  0.51842200  0.86296700  0.42093300  1
  H  239  1  0.56485700  0.82216400  0.29320300  1
  H  240  1  0.65371000  0.82351100  0.40414200  1
  H  253  1  0.97221200  0.12728400  0.92072800  1
  H  254  1  0.92554300  0.16802200  0.79303600  1
  H  255  1  0.83697400  0.16702600  0.90416400  1
  H  268  1  0.01821300  0.62733400  0.56951200  1
  H  269  1  0.06471600  0.66824200  0.69722400  1
  H  270  1  0.15345000  0.66692200  0.58624200  1
  H  283  1  0.92116900  0.51787900  0.62767000  1
  H  284  1  0.79339900  0.56456900  0.66808900  1
  H  285  1  0.90448000  0.65321500  0.66710200  1
  H  298  1  0.56897600  0.47227100  0.12765600  1
  H  299  1  0.69680000  0.42565600  0.16813700  1
  H  300  1  0.58579100  0.33696700  0.16697800  1
  H  313  1  0.06927200  0.01785900  0.86276400  1
  H  314  1  0.19698100  0.06459500  0.82226300  1
  H  315  1  0.08579900  0.15313000  0.82313500  1
  H  328  1  0.42124600  0.97235100  0.36277900  1
  H  329  1  0.29354000  0.92564800  0.32226100  1
  H  330  1  0.40462400  0.83699500  0.32342900  1
  H  343  1  0.62769700  0.92125100  0.51811300  1
  H  344  1  0.66864200  0.79354500  0.56445300  1
  H  345  1  0.66694300  0.90436100  0.65344900  1
  H  358  1  0.12751700  0.56914600  0.47225800  1
  H  359  1  0.16848400  0.69687100  0.42598900  1
  H  360  1  0.16698300  0.58605200  0.33697300  1
  H  373  1  0.86302200  0.06929300  0.01797700  1
  H  374  1  0.82202900  0.19698700  0.06442600  1
  H  375  1  0.82331100  0.08602300  0.15319900  1
  H  388  1  0.36275500  0.42109000  0.97233400  1
  H  389  1  0.32161800  0.29342900  0.92584500  1
  H  390  1  0.32324900  0.40438300  0.83709000  1
  H  403  1  0.51820100  0.62763200  0.92092200  1
  H  404  1  0.56476200  0.66826900  0.79313500  1
  H  405  1  0.65350000  0.66694300  0.90410600  1
  H  418  1  0.47205400  0.12774300  0.56943100  1
  H  419  1  0.42550700  0.16845000  0.69717000  1
  H  420  1  0.33672900  0.16711200  0.58620200  1
  H  433  1  0.01827400  0.86286600  0.06959000  1
  H  434  1  0.06482300  0.82214400  0.19729100  1
  H  435  1  0.15355900  0.82336200  0.08626500  1
  H  448  1  0.97209000  0.36288400  0.42067200  1
  H  449  1  0.92547800  0.32212700  0.29302200  1
  H  450  1  0.83679100  0.32329100  0.40410100  1
  C  1  1  0.28288300  0.24696100  0.31273400  1
  C  3  1  0.24687000  0.31254300  0.28325600  1
  C  5  1  0.31240000  0.28301400  0.24718700  1
  C  13  1  0.20726900  0.74329300  0.81280700  1
  C  15  1  0.24336500  0.67778300  0.78327800  1
  C  17  1  0.17778200  0.70723700  0.74725300  1
  C  25  1  0.70738900  0.74698800  0.17758500  1
  C  27  1  0.74345200  0.81257900  0.20698200  1
  C  29  1  0.67793200  0.78311600  0.24312000  1
  C  37  1  0.78308200  0.24324300  0.67753500  1
  C  39  1  0.74690600  0.17780800  0.70713500  1
  C  41  1  0.81253200  0.20721600  0.74312000  1
  C  49  1  0.70740000  0.74333400  0.67760300  1
  C  51  1  0.74339100  0.67770500  0.70700300  1
  C  53  1  0.67786800  0.70719900  0.74310000  1
  C  61  1  0.78295900  0.24703200  0.17745800  1
  C  63  1  0.74685900  0.31255500  0.20695700  1
  C  65  1  0.81239300  0.28307100  0.24304600  1
  C  73  1  0.28281200  0.24340300  0.81272900  1
  C  75  1  0.24686400  0.17777200  0.78328500  1
  C  77  1  0.31237900  0.20733000  0.74721900  1
  C  85  1  0.20739000  0.74706600  0.31286700  1
  C  87  1  0.24353400  0.81255600  0.28335200  1
  C  89  1  0.17795100  0.78313600  0.24729600  1
  C  97  1  0.14494300  0.37659200  0.31776900  1
  C  98  1  0.09842200  0.36907600  0.32670800  1
  C  99  1  0.06921800  0.40405000  0.34158700  1
  C  100  1  0.08936500  0.44637700  0.35168400  1
  C  101  1  0.13620000  0.45498800  0.34565500  1
  C  102  1  0.16266500  0.42062100  0.32514600  1
  C  106  1  0.17369100  0.33984000  0.30664700  1
  C  107  1  0.15566100  0.49674400  0.35948100  1
  C  108  1  0.02267100  0.39630800  0.35089400  1
  C  112  1  0.34528900  0.61385400  0.81795400  1
  C  113  1  0.39179900  0.62135600  0.82690400  1
  C  114  1  0.42098800  0.58640500  0.84186000  1
  C  115  1  0.40083400  0.54408200  0.85199100  1
  C  116  1  0.35400200  0.53546100  0.84594900  1
  C  117  1  0.32753600  0.56987200  0.82552000  1
  C  121  1  0.31655900  0.65057900  0.80670000  1
  C  122  1  0.33448000  0.49371800  0.85973100  1
  C  123  1  0.46754200  0.59413400  0.85115000  1
  C  127  1  0.84536500  0.87657600  0.17233400  1
  C  128  1  0.89189200  0.86906800  0.16344000  1
  C  129  1  0.92109500  0.90403200  0.14854300  1
  C  130  1  0.90097100  0.94637200  0.13844800  1
  C  131  1  0.85412900  0.95498300  0.14442500  1
  C  132  1  0.82763700  0.92058900  0.16483600  1
  C  136  1  0.81662000  0.83983800  0.18351500  1
  C  137  1  0.83467700  0.99675000  0.13061900  1
  C  138  1  0.96767200  0.89632600  0.13934500  1
  C  142  1  0.64495000  0.11388200  0.67254100  1
  C  143  1  0.59845000  0.12143300  0.66351900  1
  C  144  1  0.56924400  0.08648500  0.64857700  1
  C  145  1  0.58936000  0.04413000  0.63853400  1
  C  146  1  0.63617600  0.03546900  0.64465800  1
  C  147  1  0.66264400  0.06984800  0.66512400  1
  C  151  1  0.67369100  0.15061800  0.68373100  1
  C  152  1  0.65563400  0.99368200  0.63093000  1
  C  153  1  0.52270700  0.09426100  0.63923600  1
  C  157  1  0.31766300  0.14508300  0.37671400  1
  C  158  1  0.32682000  0.09860900  0.36915400  1
  C  159  1  0.34190600  0.06944600  0.40407800  1
  C  160  1  0.35188100  0.08958200  0.44643500  1
  C  161  1  0.34562100  0.13637400  0.45511000  1
  C  162  1  0.32506600  0.16279300  0.42074700  1
  C  166  1  0.30634900  0.17378300  0.33997900  1
  C  167  1  0.35930500  0.15584500  0.49690400  1
  C  168  1  0.35135900  0.02292600  0.39630800  1
  C  172  1  0.81787900  0.34511200  0.61355500  1
  C  173  1  0.82692100  0.39160500  0.62113200  1
  C  174  1  0.84194500  0.42080800  0.58621500  1
  C  175  1  0.85201200  0.40069100  0.54386500  1
  C  176  1  0.84584300  0.35389000  0.53517600  1
  C  177  1  0.82532300  0.32742400  0.56952600  1
  C  181  1  0.80658400  0.31638900  0.65027700  1
  C  182  1  0.85955100  0.33443500  0.49337900  1
  C  183  1  0.85133300  0.46733500  0.59400500  1
  C  187  1  0.17256500  0.84518500  0.87679400  1
  C  188  1  0.16349100  0.89166800  0.86923100  1
  C  189  1  0.14848100  0.92086100  0.90415700  1
  C  190  1  0.13839500  0.90072700  0.94649000  1
  C  191  1  0.14458600  0.85392200  0.95516300  1
  C  192  1  0.16519800  0.82748100  0.92083300  1
  C  196  1  0.18380700  0.81646100  0.84005900  1
  C  197  1  0.13082600  0.83442000  0.99692800  1
  C  198  1  0.13911300  0.96739400  0.89639800  1
  C  202  1  0.67252100  0.64508200  0.11366800  1
  C  203  1  0.66333900  0.59862700  0.12124200  1
  C  204  1  0.64827500  0.56944800  0.08633800  1
  C  205  1  0.63829000  0.58957100  0.04397200  1
  C  206  1  0.64459400  0.63635600  0.03527500  1
  C  207  1  0.66522200  0.66278300  0.06960700  1
  C  211  1  0.68379900  0.67383000  0.15037700  1
  C  212  1  0.63090300  0.65583100  0.99347200  1
  C  213  1  0.63882900  0.52292700  0.09410700  1
  C  217  1  0.37635400  0.31775200  0.14527500  1
  C  218  1  0.36880200  0.32682800  0.09879400  1
  C  219  1  0.40372100  0.34180100  0.06958500  1
  C  220  1  0.44606500  0.35185700  0.08972100  1
  C  221  1  0.45472000  0.34573000  0.13653300  1
  C  222  1  0.42039700  0.32512100  0.16298900  1
  C  226  1  0.33964000  0.30651200  0.17402500  1
  C  227  1  0.49649300  0.35953200  0.15597300  1
  C  228  1  0.39594500  0.35121600  0.02306100  1
  C  232  1  0.61409100  0.81804200  0.34502800  1
  C  233  1  0.62167100  0.82711100  0.39151400  1
  C  234  1  0.58675500  0.84214500  0.42071000  1
  C  235  1  0.54439400  0.85218800  0.40060000  1
  C  236  1  0.53571200  0.84606100  0.35379100  1
  C  237  1  0.57008200  0.82557100  0.32732800  1
  C  241  1  0.65077200  0.80669300  0.31628200  1
  C  242  1  0.49392800  0.85979500  0.33432400  1
  C  243  1  0.59451800  0.85149300  0.46725300  1
  C  247  1  0.87649500  0.17235000  0.84496800  1
  C  248  1  0.86899300  0.16335200  0.89147800  1
  C  249  1  0.90393700  0.14828800  0.92062600  1
  C  250  1  0.94622200  0.13811200  0.90043900  1
  C  251  1  0.95481300  0.14416300  0.85360300  1
  C  252  1  0.92046700  0.16474700  0.82718600  1
  C  256  1  0.83976700  0.18373400  0.81629500  1
  C  257  1  0.99652200  0.13031000  0.83406300  1
  C  258  1  0.89626200  0.13903000  0.96720100  1
  C  262  1  0.11385800  0.67241900  0.64536400  1
  C  263  1  0.12143000  0.66331900  0.59887800  1
  C  264  1  0.08651600  0.64824400  0.56969500  1
  C  265  1  0.04418000  0.63817100  0.58982900  1
  C  266  1  0.03551200  0.64431900  0.63663700  1
  C  267  1  0.06984700  0.66490000  0.66307500  1
  C  271  1  0.15057300  0.68376500  0.67407400  1
  C  272  1  0.99374000  0.63053300  0.65608200  1
  C  273  1  0.09429400  0.63886600  0.52316500  1
  C  277  1  0.84527700  0.61365400  0.67238500  1
  C  278  1  0.89180000  0.62114900  0.66347500  1
  C  279  1  0.92099600  0.58619500  0.64852900  1
  C  280  1  0.90084900  0.54387200  0.63840500  1
  C  281  1  0.85401400  0.53526700  0.64441700  1
  C  282  1  0.82753500  0.56964800  0.66487000  1
  C  286  1  0.81656600  0.65040900  0.68359500  1
  C  287  1  0.83452100  0.49352500  0.63060500  1
  C  288  1  0.96756400  0.59391700  0.63930400  1
  C  292  1  0.64493300  0.37652000  0.17233000  1
  C  293  1  0.59841300  0.36897500  0.16339400  1
  C  294  1  0.56919600  0.40393500  0.14848200  1
  C  295  1  0.58932000  0.44627200  0.13837900  1
  C  296  1  0.63614500  0.45492400  0.14443600  1
  C  297  1  0.66262700  0.42054300  0.16487900  1
  C  301  1  0.67367100  0.33978200  0.18353100  1
  C  302  1  0.65562000  0.49669400  0.13068700  1
  C  303  1  0.52263600  0.39618900  0.13922600  1
  C  307  1  0.14502900  0.11364100  0.81786600  1
  C  308  1  0.09849700  0.12110500  0.82677200  1
  C  309  1  0.06934900  0.08613200  0.84175500  1
  C  310  1  0.08955800  0.04386600  0.85198500  1
  C  311  1  0.13640100  0.03530100  0.84594500  1
  C  312  1  0.16281700  0.06965600  0.82535000  1
  C  316  1  0.17370600  0.15042400  0.80666200  1
  C  317  1  0.15596600  0.99361100  0.85983900  1
  C  318  1  0.02278000  0.09382200  0.85100100  1
  C  322  1  0.34544100  0.87653900  0.31801600  1
  C  323  1  0.39194800  0.86904400  0.32702000  1
  C  324  1  0.42111700  0.90401800  0.34195700  1
  C  325  1  0.40094300  0.94633400  0.35205800  1
  C  326  1  0.35411400  0.95493500  0.34595400  1
  C  327  1  0.32768900  0.92055900  0.32540300  1
  C  331  1  0.31670800  0.83979400  0.30684700  1
  C  332  1  0.33459000  0.99668100  0.35973600  1
  C  333  1  0.46769800  0.89635000  0.35117500  1
  C  337  1  0.67263900  0.84531100  0.61372800  1
  C  338  1  0.66345800  0.89176300  0.62135200  1
  C  339  1  0.64844400  0.92098900  0.58645600  1
  C  340  1  0.63851300  0.90091000  0.54406200  1
  C  341  1  0.64478000  0.85412900  0.53532500  1
  C  342  1  0.66537200  0.82766100  0.56964800  1
  C  346  1  0.68387700  0.81652500  0.65042300  1
  C  347  1  0.63110300  0.83472500  0.49348700  1
  C  348  1  0.63889700  0.96746900  0.59432100  1
  C  352  1  0.17252500  0.64512300  0.37669300  1
  C  353  1  0.16340800  0.59866000  0.36907000  1
  C  354  1  0.14834000  0.56943400  0.40393800  1
  C  355  1  0.13832300  0.58950300  0.44632600  1
  C  356  1  0.14453700  0.63628800  0.45508000  1
  C  357  1  0.16503400  0.66278300  0.42072700  1
  C  361  1  0.18387800  0.67389100  0.34002300  1
  C  362  1  0.13084400  0.65568200  0.49691400  1
  C  363  1  0.13884100  0.52294800  0.39606400  1
  C  367  1  0.81784900  0.14514300  0.11357200  1
  C  368  1  0.82694500  0.09866500  0.12115100  1
  C  369  1  0.84209800  0.06949600  0.08626900  1
  C  370  1  0.85217800  0.08961700  0.04392700  1
  C  371  1  0.84598900  0.13641800  0.03523700  1
  C  372  1  0.82538100  0.16285500  0.06956000  1
  C  376  1  0.80646500  0.17386600  0.15026400  1
  C  377  1  0.85976500  0.15592000  0.99347900  1
  C  378  1  0.85151600  0.02297500  0.09406400  1
  C  382  1  0.31760400  0.34528900  0.87667800  1
  C  383  1  0.32678000  0.39176100  0.86910200  1
  C  384  1  0.34187900  0.42092300  0.90402200  1
  C  385  1  0.35189100  0.40078000  0.94636800  1
  C  386  1  0.34562500  0.35399200  0.95505400  1
  C  387  1  0.32503200  0.32758200  0.92070400  1
  C  391  1  0.30626800  0.31658800  0.83995000  1
  C  392  1  0.35931800  0.33451600  0.99684300  1
  C  393  1  0.35139300  0.46742000  0.89620800  1
  C  397  1  0.61392200  0.67241900  0.84499500  1
  C  398  1  0.62149100  0.66339000  0.89149800  1
  C  399  1  0.58654800  0.64841400  0.92070400  1
  C  400  1  0.54419800  0.63837800  0.90058500  1
  C  401  1  0.53553200  0.64447800  0.85377300  1
  C  402  1  0.56989500  0.66496100  0.82730100  1
  C  406  1  0.65064300  0.68367300  0.81625400  1
  C  407  1  0.49374200  0.63073000  0.83434800  1
  C  408  1  0.59427700  0.63912100  0.96726200  1
  C  412  1  0.37635400  0.17257800  0.64533300  1
  C  413  1  0.36879800  0.16354700  0.59884000  1
  C  414  1  0.40372500  0.14856700  0.56963100  1
  C  415  1  0.44607500  0.13851000  0.58975700  1
  C  416  1  0.45474000  0.14463600  0.63656900  1
  C  417  1  0.42038400  0.16513700  0.66304100  1
  C  421  1  0.33963300  0.18383300  0.67407400  1
  C  422  1  0.49652700  0.13088400  0.65600000  1
  C  423  1  0.39597900  0.13920000  0.52309400  1
  C  427  1  0.11397000  0.81791000  0.14541500  1
  C  428  1  0.12150900  0.82693800  0.09891500  1
  C  429  1  0.08657600  0.84195200  0.06973400  1
  C  430  1  0.04426600  0.85208600  0.08989800  1
  C  431  1  0.03562300  0.84594200  0.13671200  1
  C  432  1  0.06994800  0.82532000  0.16314600  1
  C  436  1  0.15071000  0.80663500  0.17412100  1
  C  437  1  0.99386200  0.85974800  0.15618300  1
  C  438  1  0.09427400  0.85124800  0.02317200  1
  C  442  1  0.87636300  0.31787800  0.34491600  1
  C  443  1  0.86885100  0.32692300  0.39141200  1
  C  444  1  0.90379400  0.34195400  0.42056700  1
  C  445  1  0.94609400  0.35208800  0.40038300  1
  C  446  1  0.95470800  0.34593700  0.35356400  1
  C  447  1  0.92037500  0.32530400  0.32715100  1
  C  451  1  0.83963100  0.30659800  0.31620500  1
  C  452  1  0.99645300  0.35974900  0.33405900  1
  C  453  1  0.89612300  0.35123000  0.46713800  1
  N  2  1  0.24983800  0.27887700  0.31460600  1
  N  4  1  0.27876800  0.31439200  0.25019700  1
  N  6  1  0.31424600  0.24994800  0.27908000  1
  N  7  1  0.21437300  0.34492900  0.28543300  1
  N  9  1  0.34475300  0.28521500  0.21465900  1
  N  11  1  0.28506000  0.21442500  0.34507800  1
  N  14  1  0.24036000  0.71142700  0.81464900  1
  N  16  1  0.21146000  0.67590300  0.75022800  1
  N  18  1  0.17589900  0.74028700  0.77916300  1
  N  19  1  0.27590500  0.64544500  0.78545300  1
  N  21  1  0.14543300  0.70502400  0.71472500  1
  N  23  1  0.20506000  0.77580400  0.84517800  1
  N  26  1  0.74045000  0.77888500  0.17566600  1
  N  28  1  0.71158000  0.81447300  0.24006100  1
  N  30  1  0.67604900  0.75002100  0.21125600  1
  N  31  1  0.77595300  0.84495800  0.20474600  1
  N  33  1  0.64560100  0.78537500  0.27566300  1
  N  35  1  0.70518400  0.71441900  0.14527400  1
  N  38  1  0.74995000  0.21141200  0.67572700  1
  N  40  1  0.77881000  0.17592700  0.74018500  1
  N  42  1  0.81445200  0.24022800  0.71117900  1
  N  43  1  0.71433100  0.14550000  0.70501100  1
  N  45  1  0.84489000  0.20499000  0.77563800  1
  N  47  1  0.78532800  0.27573300  0.64514700  1
  N  50  1  0.74044000  0.71141300  0.67569600  1
  N  52  1  0.71149100  0.67581500  0.74005300  1
  N  54  1  0.67603200  0.74030700  0.71125000  1
  N  55  1  0.77587500  0.64530900  0.70478400  1
  N  57  1  0.64550600  0.70496300  0.77561700  1
  N  59  1  0.70523800  0.77592300  0.64530900  1
  N  62  1  0.74988500  0.27891800  0.17558000  1
  N  64  1  0.77872800  0.31441500  0.24004300  1
  N  66  1  0.81429300  0.25002800  0.21113500  1
  N  67  1  0.71433500  0.34491200  0.20476300  1
  N  69  1  0.84472400  0.28526000  0.27559100  1
  N  71  1  0.78521600  0.21452000  0.14509400  1
  N  74  1  0.24979100  0.21146200  0.81461200  1
  N  76  1  0.27877500  0.17592300  0.75023800  1
  N  78  1  0.31419000  0.24041800  0.77908800  1
  N  79  1  0.21440600  0.14535400  0.78548000  1
  N  81  1  0.34475300  0.20512200  0.71471100  1
  N  83  1  0.28496900  0.27595200  0.84506300  1
  N  86  1  0.24049500  0.77891800  0.31472900  1
  N  88  1  0.21164800  0.81444600  0.25028100  1
  N  90  1  0.17604000  0.75009200  0.27920700  1
  N  91  1  0.27608500  0.84488300  0.28552800  1
  N  93  1  0.14560900  0.78534100  0.21476000  1
  N  95  1  0.20512900  0.71454200  0.34521800  1
  O  109  1  0.19722800  0.50793800  0.34317500  1
  O  110  1  0.15866100  0.29702800  0.31482800  1
  O  111  1  0.99988300  0.42872000  0.37445400  1
  O  124  1  0.29296700  0.48246700  0.84334000  1
  O  125  1  0.33160900  0.69341400  0.81472000  1
  O  126  1  0.49029100  0.56178300  0.87482900  1
  O  139  1  0.79308000  0.00790700  0.14687000  1
  O  140  1  0.83165400  0.79701600  0.17540100  1
  O  141  1  0.99046600  0.92871200  0.11575200  1
  O  154  1  0.69720400  0.98249900  0.64723300  1
  O  155  1  0.65870500  0.19344300  0.67553700  1
  O  156  1  0.49994700  0.06191100  0.61556400  1
  O  169  1  0.34290400  0.19737300  0.50811100  1
  O  170  1  0.31452700  0.15878300  0.29715400  1
  O  171  1  0.37522100  0.00028700  0.42860100  1
  O  184  1  0.84318700  0.29291300  0.48211400  1
  O  185  1  0.81473400  0.33138600  0.69310900  1
  O  186  1  0.87518900  0.49003000  0.56174600  1
  O  199  1  0.14743000  0.79301600  0.00826100  1
  O  200  1  0.17560300  0.83145100  0.79723700  1
  O  201  1  0.11528300  0.99009300  0.92867400  1
  O  214  1  0.64756200  0.69722400  0.98216300  1
  O  215  1  0.67564200  0.65884700  0.19321200  1
  O  216  1  0.61496700  0.50027300  0.06182600  1
  O  229  1  0.50775400  0.34313400  0.19748600  1
  O  230  1  0.29681000  0.31466600  0.15902300  1
  O  231  1  0.42837100  0.37479700  0.00031500  1
  O  244  1  0.48258600  0.84330900  0.29287400  1
  O  245  1  0.69362800  0.81469700  0.33128300  1
  O  246  1  0.56208800  0.87504300  0.49002300  1
  O  259  1  0.00782300  0.14671200  0.79256800  1
  O  260  1  0.79693500  0.17572300  0.83135900  1
  O  261  1  0.92866100  0.11539800  0.98993000  1
  O  274  1  0.98248900  0.64692100  0.69760400  1
  O  275  1  0.19341000  0.67567600  0.65906100  1
  O  276  1  0.06188800  0.61526200  0.50041600  1
  O  289  1  0.79294800  0.48230100  0.64686300  1
  O  290  1  0.83161700  0.69322400  0.67546900  1
  O  291  1  0.99032300  0.56155200  0.61565500  1
  O  304  1  0.69718000  0.50791400  0.14698800  1
  O  305  1  0.65867100  0.29696000  0.17534700  1
  O  306  1  0.49988600  0.42850600  0.11550500  1
  O  319  1  0.19743500  0.98233600  0.84335300  1
  O  320  1  0.15862300  0.19322600  0.81479800  1
  O  321  1  0.00003600  0.06143500  0.87463900  1
  O  334  1  0.29310600  0.00788800  0.34323600  1
  O  335  1  0.33173000  0.79697600  0.31501200  1
  O  336  1  0.49040700  0.92871200  0.37488200  1
  O  349  1  0.64759300  0.79325400  0.48221300  1
  O  350  1  0.67570300  0.83147800  0.69326500  1
  O  351  1  0.61517700  0.99018800  0.56197300  1
  O  364  1  0.14725800  0.69719000  0.50816500  1
  O  365  1  0.17583200  0.65892200  0.29716400  1
  O  366  1  0.11509500  0.50019800  0.42836700  1
  O  379  1  0.84320000  0.19734600  0.98215700  1
  O  380  1  0.81447900  0.15885500  0.19311500  1
  O  381  1  0.87539200  0.00030300  0.06180400  1
  O  394  1  0.34292100  0.29299200  0.00805800  1
  O  395  1  0.31438400  0.33159900  0.79711800  1
  O  396  1  0.37513300  0.49010800  0.92855600  1
  O  409  1  0.48251500  0.64699900  0.79277500  1
  O  410  1  0.69347500  0.67554400  0.83125700  1
  O  411  1  0.56189200  0.61546200  0.98998400  1
  O  424  1  0.50775800  0.14718000  0.69756400  1
  O  425  1  0.29679900  0.17575000  0.65904400  1
  O  426  1  0.42833700  0.11549600  0.50037800  1
  O  439  1  0.98253300  0.84321100  0.19761800  1
  O  440  1  0.19353300  0.81480200  0.15911300  1
  O  441  1  0.06192300  0.87498200  0.00048000  1
  O  454  1  0.00775500  0.34320200  0.29261900  1
  O  455  1  0.79680600  0.31468200  0.33124600  1
  O  456  1  0.92847400  0.37496600  0.48982600  1
