# generated using pymatgen
data_Mg3H8C24(SO4)4
_symmetry_space_group_name_H-M   'P 1'
_cell_length_a   9.66144000
_cell_length_b   10.33162042
_cell_length_c   11.80479000
_cell_angle_alpha   68.92488727
_cell_angle_beta   87.42815000
_cell_angle_gamma   62.88598195
_symmetry_Int_Tables_number   1
_chemical_formula_structural   Mg3H8C24(SO4)4
_chemical_formula_sum   'Mg3 H8 C24 S4 O16'
_cell_volume   968.58004049
_cell_formula_units_Z   1
loop_
 _symmetry_equiv_pos_site_id
 _symmetry_equiv_pos_as_xyz
  1  'x, y, z'
loop_
 _atom_site_type_symbol
 _atom_site_label
 _atom_site_symmetry_multiplicity
 _atom_site_fract_x
 _atom_site_fract_y
 _atom_site_fract_z
 _atom_site_occupancy
  Mg  Mg0  1  0.54651000  0.89776000  0.33857000  1
  Mg  Mg1  1  0.45348000  0.10225000  0.66143000  1
  Mg  Mg2  1  0.50000000  0.00000000  0.00000000  1
  H  H3  1  0.10750000  0.19284000  0.98741000  1
  H  H4  1  0.81156000  0.24536000  0.95014000  1
  H  H5  1  0.19384000  0.27569000  0.14393000  1
  H  H6  1  0.89468000  0.49671000  0.05817000  1
  H  H7  1  0.89250000  0.80716000  0.01259000  1
  H  H8  1  0.18844000  0.75464000  0.04986000  1
  H  H9  1  0.80616000  0.72431000  0.85607000  1
  H  H10  1  0.10531000  0.50330000  0.94182000  1
  C  C11  1  0.31345000  0.20964000  0.39053000  1
  C  C12  1  0.73549000  0.67649000  0.20784000  1
  C  C13  1  0.29153000  0.96112000  0.22246000  1
  C  C14  1  0.13078000  0.01567000  0.16710000  1
  C  C15  1  0.86045000  0.06288000  0.13171000  1
  C  C16  1  0.71699000  0.04378000  0.14403000  1
  C  C17  1  0.05074000  0.13322000  0.05126000  1
  C  C18  1  0.89585000  0.16153000  0.03242000  1
  C  C19  1  0.88780000  0.53318000  0.22922000  1
  C  C20  1  0.15940000  0.32401000  0.31143000  1
  C  C21  1  0.11300000  0.34374000  0.19254000  1
  C  C22  1  0.95721000  0.46137000  0.14701000  1
  C  C23  1  0.68655000  0.79036000  0.60946000  1
  C  C24  1  0.26451000  0.32351000  0.79216000  1
  C  C25  1  0.70847000  0.03888000  0.77754000  1
  C  C26  1  0.86922000  0.98433000  0.83290000  1
  C  C27  1  0.13955000  0.93712000  0.86829000  1
  C  C28  1  0.28301000  0.95622000  0.85597000  1
  C  C29  1  0.94925000  0.86678000  0.94874000  1
  C  C30  1  0.10414000  0.83848000  0.96758000  1
  C  C31  1  0.11219000  0.46682000  0.77078000  1
  C  C32  1  0.84060000  0.67599000  0.68857000  1
  C  C33  1  0.88700000  0.65626000  0.80746000  1
  C  C34  1  0.04278000  0.53863000  0.85299000  1
  S  S35  1  0.01561000  0.94022000  0.25106000  1
  S  S36  1  0.01283000  0.45025000  0.36528000  1
  S  S37  1  0.98437000  0.05979000  0.74894000  1
  S  S38  1  0.98717000  0.54975000  0.63472000  1
  O  O39  1  0.41393000  0.11284000  0.34948000  1
  O  O40  1  0.33202000  0.88027000  0.33646000  1
  O  O41  1  0.32933000  0.22190000  0.49180000  1
  O  O42  1  0.67472000  0.69400000  0.30228000  1
  O  O43  1  0.70535000  0.96776000  0.25303000  1
  O  O44  1  0.62477000  0.09737000  0.04675000  1
  O  O45  1  0.38308000  0.00432000  0.15502000  1
  O  O46  1  0.68371000  0.77187000  0.09690000  1
  O  O47  1  0.58606000  0.88717000  0.65052000  1
  O  O48  1  0.66797000  0.11973000  0.66354000  1
  O  O49  1  0.67066000  0.77811000  0.50820000  1
  O  O50  1  0.32528000  0.30600000  0.69772000  1
  O  O51  1  0.29464000  0.03224000  0.74697000  1
  O  O52  1  0.37522000  0.90264000  0.95325000  1
  O  O53  1  0.61692000  0.99568000  0.84498000  1
  O  O54  1  0.31629000  0.22813000  0.90310000  1
