# generated using pymatgen
data_H10C20N5O2
_symmetry_space_group_name_H-M   'P 1'
_cell_length_a   19.42600000
_cell_length_b   19.42600000
_cell_length_c   38.85200000
_cell_angle_alpha   90.00000000
_cell_angle_beta   90.00000000
_cell_angle_gamma   90.00000000
_symmetry_Int_Tables_number   1
_chemical_formula_structural   H10C20N5O2
_chemical_formula_sum   'H120 C240 N60 O24'
_cell_volume   14661.55888155
_cell_formula_units_Z   12
loop_
 _symmetry_equiv_pos_site_id
 _symmetry_equiv_pos_as_xyz
  1  'x, y, z'
loop_
 _atom_site_type_symbol
 _atom_site_label
 _atom_site_symmetry_multiplicity
 _atom_site_fract_x
 _atom_site_fract_y
 _atom_site_fract_z
 _atom_site_occupancy
  C  1  1  0.01640100  0.96774500  0.01525600  1
  C  2  1  0.03368300  0.98583200  0.04964600  1
  C  3  1  0.03584000  0.93707000  0.07657500  1
  C  4  1  0.02235800  0.86647900  0.06986600  1
  C  5  1  0.00353300  0.84711600  0.03591600  1
  C  6  1  0.00113900  0.89727800  0.00963200  1
  C  9  1  0.01014800  0.01716800  0.98803000  1
  C  10  1  0.99867700  0.08781000  0.99497600  1
  C  11  1  0.98751800  0.13701400  0.96882600  1
  C  12  1  0.98833900  0.11670600  0.93370000  1
  C  13  1  0.00105600  0.04644800  0.92573200  1
  C  14  1  0.01189700  0.99863100  0.95263900  1
  C  27  1  0.02506100  0.01464500  0.51799700  1
  C  28  1  0.00587900  0.03779500  0.55126400  1
  C  29  1  0.05310500  0.04283000  0.57886400  1
  C  30  1  0.12350100  0.02574400  0.57353300  1
  C  31  1  0.14408500  0.00099400  0.54065200  1
  C  32  1  0.09503400  0.99601200  0.51389400  1
  C  35  1  0.97681600  0.00849300  0.49030500  1
  C  36  1  0.90554200  0.99973200  0.49652800  1
  C  37  1  0.85703000  0.98981900  0.46989900  1
  C  38  1  0.87918400  0.98971000  0.43500500  1
  C  39  1  0.95013800  0.00072200  0.42776500  1
  C  40  1  0.99719300  0.00914700  0.45522500  1
  C  53  1  0.98116300  0.03520600  0.66104000  1
  C  54  1  0.93504700  0.06478000  0.68498200  1
  C  56  1  0.98882000  0.00689900  0.73216600  1
  C  57  1  0.03633300  0.97449900  0.70959600  1
  C  58  1  0.03105800  0.98874600  0.67399100  1
  C  60  1  0.99242900  0.99488400  0.76794600  1
  C  61  1  0.94849000  0.01775000  0.82419000  1
  C  62  1  0.99987700  0.97680500  0.83990100  1
  C  63  1  0.04685900  0.94256000  0.81792500  1
  C  66  1  0.04410300  0.95107700  0.78175400  1
  C  67  1  0.09099200  0.91854300  0.75912000  1
  C  68  1  0.08696100  0.92992500  0.72333500  1
  C  73  1  0.97593000  0.04859700  0.62597300  1
  C  74  1  0.00360900  0.97048400  0.87549700  1
  C  77  1  0.00626500  0.99230500  0.16232900  1
  C  78  1  0.96846100  0.94927000  0.18465900  1
  C  80  1  0.01919800  0.00125300  0.23417200  1
  C  81  1  0.05856300  0.04653100  0.21321500  1
  C  82  1  0.05169900  0.04095200  0.17699600  1
  C  84  1  0.02369000  0.00471600  0.27035400  1
  C  85  1  0.98713700  0.96196400  0.32498000  1
  C  86  1  0.02735700  0.01098100  0.34289600  1
  C  87  1  0.06812600  0.05630600  0.32282800  1
  C  90  1  0.06695300  0.05413100  0.28638200  1
  C  91  1  0.10629600  0.09906300  0.26549000  1
  C  92  1  0.10230200  0.09515600  0.22926000  1
  C  97  1  0.99682500  0.98579300  0.12735500  1
  C  98  1  0.02783500  0.01351300  0.37874000  1
  C  101  1  0.96087800  0.31282400  0.00458800  1
  C  102  1  0.97052000  0.35326500  0.03439600  1
  C  104  1  0.94743800  0.45685400  0.00347400  1
  C  105  1  0.93358500  0.41934800  0.97290300  1
  C  106  1  0.94083000  0.34705700  0.97399900  1
  C  108  1  0.94622200  0.52929600  0.00308300  1
  C  109  1  0.96762700  0.63448000  0.03277000  1
  C  110  1  0.95466200  0.67370800  0.00281400  1
  C  111  1  0.93430600  0.63791900  0.97277900  1
  C  114  1  0.93033200  0.56529000  0.97227500  1
  C  115  1  0.91352900  0.52768000  0.94225100  1
  C  116  1  0.91537000  0.45516400  0.94253100  1
  C  121  1  0.97336400  0.24155300  0.00574100  1
  C  122  1  0.96402800  0.74545600  0.00186800  1
  C  125  1  0.67975200  0.96893700  0.50564700  1
  C  126  1  0.64029400  0.98041400  0.53564600  1
  C  128  1  0.53579800  0.95248700  0.50653500  1
  C  129  1  0.57228800  0.93728800  0.47579000  1
  C  130  1  0.64449300  0.94632300  0.47582100  1
  C  132  1  0.46337600  0.94863200  0.50722800  1
  C  133  1  0.35871200  0.96831200  0.53786700  1
  C  134  1  0.31854400  0.95080900  0.50882600  1
  C  135  1  0.35376000  0.92917600  0.47882300  1
  C  138  1  0.42646000  0.92846600  0.47733700  1
  C  139  1  0.46311800  0.91069800  0.44714800  1
  C  140  1  0.53550000  0.91538800  0.44633300  1
  C  145  1  0.75116200  0.98111600  0.50612100  1
  C  146  1  0.24642800  0.95761400  0.50839600  1
  C  593  1  0.37674300  0.22513300  0.01525600  1
  C  594  1  0.39402500  0.24322000  0.04964600  1
  C  595  1  0.39618200  0.19445750  0.07657500  1
  C  596  1  0.38270000  0.12386650  0.06986600  1
  C  597  1  0.36387500  0.10450350  0.03591600  1
  C  598  1  0.36148100  0.15466550  0.00963200  1
  C  601  1  0.37049000  0.27455600  0.98803000  1
  C  602  1  0.35901900  0.34519800  0.99497600  1
  C  603  1  0.34786000  0.39440200  0.96882600  1
  C  604  1  0.34868100  0.37409400  0.93370000  1
  C  605  1  0.36139800  0.30383600  0.92573200  1
  C  606  1  0.37223900  0.25601900  0.95263900  1
  C  619  1  0.38540300  0.27203300  0.51799700  1
  C  620  1  0.36622100  0.29518300  0.55126400  1
  C  621  1  0.41344700  0.30021800  0.57886400  1
  C  622  1  0.48384300  0.28313200  0.57353300  1
  C  623  1  0.50442700  0.25838200  0.54065200  1
  C  624  1  0.45537600  0.25340000  0.51389400  1
  C  627  1  0.33715800  0.26588100  0.49030500  1
  C  628  1  0.26588400  0.25712000  0.49652800  1
  C  629  1  0.21737200  0.24720700  0.46989900  1
  C  630  1  0.23952600  0.24709800  0.43500500  1
  C  631  1  0.31048000  0.25811000  0.42776500  1
  C  632  1  0.35753500  0.26653500  0.45522500  1
  C  645  1  0.34150500  0.29259400  0.66104000  1
  C  646  1  0.29538900  0.32216800  0.68498200  1
  C  648  1  0.34916200  0.26428700  0.73216600  1
  C  649  1  0.39667500  0.23188700  0.70959600  1
  C  650  1  0.39140000  0.24613400  0.67399100  1
  C  652  1  0.35277100  0.25227200  0.76794600  1
  C  653  1  0.30883200  0.27513800  0.82419000  1
  C  654  1  0.36021900  0.23419300  0.83990100  1
  C  655  1  0.40720100  0.19994750  0.81792500  1
  C  658  1  0.40444500  0.20846500  0.78175400  1
  C  659  1  0.45133400  0.17593050  0.75912000  1
  C  660  1  0.44730300  0.18731250  0.72333500  1
  C  665  1  0.33627200  0.30598500  0.62597300  1
  C  666  1  0.36395100  0.22787200  0.87549700  1
  C  669  1  0.36660700  0.24969300  0.16232900  1
  C  670  1  0.32880300  0.20665800  0.18465900  1
  C  672  1  0.37954000  0.25864100  0.23417200  1
  C  673  1  0.41890500  0.30391900  0.21321500  1
  C  674  1  0.41204100  0.29834000  0.17699600  1
  C  676  1  0.38403200  0.26210400  0.27035400  1
  C  677  1  0.34747900  0.21935200  0.32498000  1
  C  678  1  0.38769900  0.26836900  0.34289600  1
  C  679  1  0.42846800  0.31369400  0.32282800  1
  C  682  1  0.42729500  0.31151900  0.28638200  1
  C  683  1  0.46663800  0.35645100  0.26549000  1
  C  684  1  0.46264400  0.35254400  0.22926000  1
  C  689  1  0.35716700  0.24318100  0.12735500  1
  C  690  1  0.38817700  0.27090100  0.37874000  1
  C  693  1  0.32122000  0.57021200  0.00458800  1
  C  694  1  0.33086200  0.61065300  0.03439600  1
  C  696  1  0.30778000  0.71424200  0.00347400  1
  C  697  1  0.29392700  0.67673600  0.97290300  1
  C  698  1  0.30117200  0.60444500  0.97399900  1
  C  700  1  0.30656400  0.78668400  0.00308300  1
  C  701  1  0.32796900  0.89186800  0.03277000  1
  C  702  1  0.31500400  0.93109600  0.00281400  1
  C  703  1  0.29464800  0.89530700  0.97277900  1
  C  706  1  0.29067400  0.82267800  0.97227500  1
  C  707  1  0.27387100  0.78506800  0.94225100  1
  C  708  1  0.27571200  0.71255200  0.94253100  1
  C  713  1  0.33370600  0.49894100  0.00574100  1
  C  714  1  0.32437000  0.00284350  0.00186800  1
  C  717  1  0.04009390  0.22632500  0.50564700  1
  C  718  1  0.00063590  0.23780200  0.53564600  1
  C  720  1  0.89614000  0.20987500  0.50653500  1
  C  721  1  0.93263000  0.19467550  0.47579000  1
  C  722  1  0.00483490  0.20371100  0.47582100  1
  C  724  1  0.82371800  0.20602000  0.50722800  1
  C  725  1  0.71905400  0.22570000  0.53786700  1
  C  726  1  0.67888600  0.20819700  0.50882600  1
  C  727  1  0.71410200  0.18656350  0.47882300  1
  C  730  1  0.78680200  0.18585350  0.47733700  1
  C  731  1  0.82346000  0.16808550  0.44714800  1
  C  732  1  0.89584200  0.17277550  0.44633300  1
  C  737  1  0.11150390  0.23850400  0.50612100  1
  C  738  1  0.60677000  0.21500200  0.50839600  1
  C  1185  1  0.73708500  0.48251900  0.01525600  1
  C  1186  1  0.75436700  0.50060600  0.04964600  1
  C  1187  1  0.75652400  0.45184400  0.07657500  1
  C  1188  1  0.74304200  0.38125300  0.06986600  1
  C  1189  1  0.72421700  0.36189000  0.03591600  1
  C  1190  1  0.72182300  0.41205200  0.00963200  1
  C  1193  1  0.73083200  0.53194200  0.98803000  1
  C  1194  1  0.71936100  0.60258400  0.99497600  1
  C  1195  1  0.70820200  0.65178800  0.96882600  1
  C  1196  1  0.70902300  0.63148000  0.93370000  1
  C  1197  1  0.72174000  0.56122200  0.92573200  1
  C  1198  1  0.73258100  0.51340500  0.95263900  1
  C  1211  1  0.74574500  0.52941900  0.51799700  1
  C  1212  1  0.72656300  0.55256900  0.55126400  1
  C  1213  1  0.77378900  0.55760400  0.57886400  1
  C  1214  1  0.84418500  0.54051800  0.57353300  1
  C  1215  1  0.86476900  0.51576800  0.54065200  1
  C  1216  1  0.81571800  0.51078600  0.51389400  1
  C  1219  1  0.69750000  0.52326700  0.49030500  1
  C  1220  1  0.62622600  0.51450600  0.49652800  1
  C  1221  1  0.57771400  0.50459300  0.46989900  1
  C  1222  1  0.59986800  0.50448400  0.43500500  1
  C  1223  1  0.67082200  0.51549600  0.42776500  1
  C  1224  1  0.71787700  0.52392100  0.45522500  1
  C  1237  1  0.70184700  0.54998000  0.66104000  1
  C  1238  1  0.65573100  0.57955400  0.68498200  1
  C  1240  1  0.70950400  0.52167300  0.73216600  1
  C  1241  1  0.75701700  0.48927300  0.70959600  1
  C  1242  1  0.75174200  0.50352000  0.67399100  1
  C  1244  1  0.71311300  0.50965800  0.76794600  1
  C  1245  1  0.66917400  0.53252400  0.82419000  1
  C  1246  1  0.72056100  0.49157900  0.83990100  1
  C  1247  1  0.76754300  0.45733400  0.81792500  1
  C  1250  1  0.76478700  0.46585100  0.78175400  1
  C  1251  1  0.81167600  0.43331700  0.75912000  1
  C  1252  1  0.80764500  0.44469900  0.72333500  1
  C  1257  1  0.69661400  0.56337100  0.62597300  1
  C  1258  1  0.72429300  0.48525800  0.87549700  1
  C  1261  1  0.72694900  0.50707900  0.16232900  1
  C  1262  1  0.68914500  0.46404400  0.18465900  1
  C  1264  1  0.73988200  0.51602700  0.23417200  1
  C  1265  1  0.77924700  0.56130500  0.21321500  1
  C  1266  1  0.77238300  0.55572600  0.17699600  1
  C  1268  1  0.74437400  0.51949000  0.27035400  1
  C  1269  1  0.70782100  0.47673800  0.32498000  1
  C  1270  1  0.74804100  0.52575500  0.34289600  1
  C  1271  1  0.78881000  0.57108000  0.32282800  1
  C  1274  1  0.78763700  0.56890500  0.28638200  1
  C  1275  1  0.82698000  0.61383700  0.26549000  1
  C  1276  1  0.82298600  0.60993000  0.22926000  1
  C  1281  1  0.71750900  0.50056700  0.12735500  1
  C  1282  1  0.74851900  0.52828700  0.37874000  1
  C  1285  1  0.68156200  0.82759800  0.00458800  1
  C  1286  1  0.69120400  0.86803900  0.03439600  1
  C  1288  1  0.66812200  0.97162800  0.00347400  1
  C  1289  1  0.65426900  0.93412200  0.97290300  1
  C  1290  1  0.66151400  0.86183100  0.97399900  1
  C  1292  1  0.66690600  0.04407000  0.00308300  1
  C  1293  1  0.68831100  0.14925400  0.03277000  1
  C  1294  1  0.67534600  0.18848200  0.00281400  1
  C  1295  1  0.65499000  0.15269300  0.97277900  1
  C  1298  1  0.65101600  0.08006400  0.97227500  1
  C  1299  1  0.63421300  0.04245400  0.94225100  1
  C  1300  1  0.63605400  0.96993800  0.94253100  1
  C  1305  1  0.69404800  0.75632700  0.00574100  1
  C  1306  1  0.68471200  0.26023000  0.00186800  1
  C  1309  1  0.40043600  0.48371100  0.50564700  1
  C  1310  1  0.36097800  0.49518800  0.53564600  1
  C  1312  1  0.25648200  0.46726100  0.50653500  1
  C  1313  1  0.29297200  0.45206200  0.47579000  1
  C  1314  1  0.36517700  0.46109700  0.47582100  1
  C  1316  1  0.18405980  0.46340600  0.50722800  1
  C  1317  1  0.07939580  0.48308600  0.53786700  1
  C  1318  1  0.03922780  0.46558300  0.50882600  1
  C  1319  1  0.07444380  0.44395000  0.47882300  1
  C  1322  1  0.14714380  0.44324000  0.47733700  1
  C  1323  1  0.18380180  0.42547200  0.44714800  1
  C  1324  1  0.25618400  0.43016200  0.44633300  1
  C  1329  1  0.47184600  0.49589000  0.50612100  1
  C  1330  1  0.96711200  0.47238800  0.50839600  1
  H  7  1  0.04629000  0.03534000  0.05578200  1
  H  16  1  0.02354300  0.94936500  0.94579800  1
  H  17  1  0.96875400  0.21210800  0.91302200  1
  H  18  1  0.97794600  0.15120100  0.88394200  1
  H  19  1  0.01690200  0.77036500  0.09167900  1
  H  20  1  0.03943300  0.83128900  0.11895400  1
  H  21  1  0.98355900  0.88211800  0.98620500  1
  H  22  1  0.99277900  0.10362900  0.01974200  1
  H  33  1  0.95698600  0.05505100  0.55547200  1
  H  42  1  0.04732900  0.01866200  0.44912000  1
  H  43  1  0.78430000  0.97253800  0.41327400  1
  H  44  1  0.84684300  0.97983200  0.38489400  1
  H  45  1  0.21844700  0.02034400  0.59662600  1
  H  46  1  0.15730000  0.04907400  0.62224900  1
  H  47  1  0.11037800  0.97501400  0.49119800  1
  H  48  1  0.88887600  0.99438200  0.52120600  1
  H  59  1  0.06429700  0.96532000  0.65722500  1
  H  64  1  0.89730600  0.09803400  0.67725500  1
  H  69  1  0.08437200  0.91216000  0.82849100  1
  H  70  1  0.91242800  0.04309300  0.83857000  1
  H  75  1  0.93480500  0.07469100  0.61822100  1
  H  76  1  0.03381300  0.93408400  0.88514400  1
  H  83  1  0.07911200  0.07292900  0.16115800  1
  H  88  1  0.93498500  0.91310700  0.17537600  1
  H  93  1  0.09840400  0.09197600  0.33495300  1
  H  94  1  0.95741900  0.92690600  0.33779200  1
  H  99  1  0.94904800  0.99023000  0.11824100  1
  H  100  1  0.06089800  0.04562600  0.38981300  1
  H  107  1  0.93261000  0.31924500  0.95203700  1
  H  112  1  0.98538600  0.33169100  0.05721700  1
  H  117  1  0.92482800  0.66493200  0.95064700  1
  H  118  1  0.98245800  0.65702200  0.05532600  1
  H  123  1  0.98695400  0.21929500  0.02858500  1
  H  124  1  0.95566800  0.77095200  0.97926000  1
  H  131  1  0.67159000  0.93677900  0.45375800  1
  H  136  1  0.66259700  0.99707700  0.55797700  1
  H  141  1  0.32610100  0.91658700  0.45728700  1
  H  142  1  0.33660200  0.98432800  0.56033200  1
  H  147  1  0.77367800  0.99589800  0.52870900  1
  H  148  1  0.22083000  0.94623300  0.48616100  1
  H  599  1  0.40663200  0.29272800  0.05578200  1
  H  608  1  0.38388500  0.20675300  0.94579800  1
  H  609  1  0.32909600  0.46949600  0.91302200  1
  H  610  1  0.33828800  0.40858900  0.88394200  1
  H  611  1  0.37724400  0.02775250  0.09167900  1
  H  612  1  0.39977500  0.08867650  0.11895400  1
  H  613  1  0.34390100  0.13950550  0.98620500  1
  H  614  1  0.35312100  0.36101700  0.01974200  1
  H  625  1  0.31732800  0.31243900  0.55547200  1
  H  634  1  0.40767100  0.27605000  0.44912000  1
  H  635  1  0.14464190  0.22992600  0.41327400  1
  H  636  1  0.20718500  0.23722000  0.38489400  1
  H  637  1  0.57878900  0.27773200  0.59662600  1
  H  638  1  0.51764200  0.30646200  0.62224900  1
  H  639  1  0.47072000  0.23240200  0.49119800  1
  H  640  1  0.24921800  0.25177000  0.52120600  1
  H  651  1  0.42463900  0.22270800  0.65722500  1
  H  656  1  0.25764800  0.35542200  0.67725500  1
  H  661  1  0.44471400  0.16954750  0.82849100  1
  H  662  1  0.27277000  0.30048100  0.83857000  1
  H  667  1  0.29514700  0.33207900  0.61822100  1
  H  668  1  0.39415500  0.19147150  0.88514400  1
  H  675  1  0.43945400  0.33031700  0.16115800  1
  H  680  1  0.29532700  0.17049450  0.17537600  1
  H  685  1  0.45874600  0.34936400  0.33495300  1
  H  686  1  0.31776100  0.18429350  0.33779200  1
  H  691  1  0.30939000  0.24761800  0.11824100  1
  H  692  1  0.42124000  0.30301400  0.38981300  1
  H  699  1  0.29295200  0.57663300  0.95203700  1
  H  704  1  0.34572800  0.58907900  0.05721700  1
  H  709  1  0.28517000  0.92232000  0.95064700  1
  H  710  1  0.34280000  0.91441000  0.05532600  1
  H  715  1  0.34729600  0.47668300  0.02858500  1
  H  716  1  0.31601000  0.02833950  0.97926000  1
  H  723  1  0.03193190  0.19416650  0.45375800  1
  H  728  1  0.02293890  0.25446500  0.55797700  1
  H  733  1  0.68644300  0.17397450  0.45728700  1
  H  734  1  0.69694400  0.24171600  0.56033200  1
  H  739  1  0.13401990  0.25328600  0.52870900  1
  H  740  1  0.58117200  0.20362100  0.48616100  1
  H  1191  1  0.76697400  0.55011400  0.05578200  1
  H  1200  1  0.74422700  0.46413900  0.94579800  1
  H  1201  1  0.68943800  0.72688200  0.91302200  1
  H  1202  1  0.69863000  0.66597500  0.88394200  1
  H  1203  1  0.73758600  0.28513900  0.09167900  1
  H  1204  1  0.76011700  0.34606300  0.11895400  1
  H  1205  1  0.70424300  0.39689200  0.98620500  1
  H  1206  1  0.71346300  0.61840300  0.01974200  1
  H  1217  1  0.67767000  0.56982500  0.55547200  1
  H  1226  1  0.76801300  0.53343600  0.44912000  1
  H  1227  1  0.50498400  0.48731200  0.41327400  1
  H  1228  1  0.56752700  0.49460600  0.38489400  1
  H  1229  1  0.93913100  0.53511800  0.59662600  1
  H  1230  1  0.87798400  0.56384800  0.62224900  1
  H  1231  1  0.83106200  0.48978800  0.49119800  1
  H  1232  1  0.60956000  0.50915600  0.52120600  1
  H  1243  1  0.78498100  0.48009400  0.65722500  1
  H  1248  1  0.61799000  0.61280800  0.67725500  1
  H  1253  1  0.80505600  0.42693400  0.82849100  1
  H  1254  1  0.63311200  0.55786700  0.83857000  1
  H  1259  1  0.65548900  0.58946500  0.61822100  1
  H  1260  1  0.75449700  0.44885800  0.88514400  1
  H  1267  1  0.79979600  0.58770300  0.16115800  1
  H  1272  1  0.65566900  0.42788100  0.17537600  1
  H  1277  1  0.81908800  0.60675000  0.33495300  1
  H  1278  1  0.67810300  0.44168000  0.33779200  1
  H  1283  1  0.66973200  0.50500400  0.11824100  1
  H  1284  1  0.78158200  0.56040000  0.38981300  1
  H  1291  1  0.65329400  0.83401900  0.95203700  1
  H  1296  1  0.70607000  0.84646500  0.05721700  1
  H  1301  1  0.64551200  0.17970600  0.95064700  1
  H  1302  1  0.70314200  0.17179600  0.05532600  1
  H  1307  1  0.70763800  0.73406900  0.02858500  1
  H  1308  1  0.67635200  0.28572600  0.97926000  1
  H  1315  1  0.39227400  0.45155300  0.45375800  1
  H  1320  1  0.38328100  0.51185100  0.55797700  1
  H  1325  1  0.04678480  0.43136100  0.45728700  1
  H  1326  1  0.05728580  0.49910200  0.56033200  1
  H  1331  1  0.49436200  0.51067200  0.52870900  1
  H  1332  1  0.94151400  0.46100700  0.48616100  1
  N  8  1  0.02554400  0.81893400  0.09573300  1
  N  15  1  0.97726600  0.16382800  0.90813700  1
  N  23  1  0.00006200  0.02738600  0.89278900  1
  N  24  1  0.97505800  0.20384700  0.97654800  1
  N  25  1  0.98660200  0.78058600  0.02968500  1
  N  26  1  0.04430700  0.95819600  0.10887400  1
  N  34  1  0.17016400  0.03180900  0.59967900  1
  N  41  1  0.83297700  0.97995600  0.40892100  1
  N  49  1  0.97088800  0.00104200  0.39502000  1
  N  50  1  0.78935000  0.97976800  0.47701300  1
  N  51  1  0.21099100  0.98353800  0.53543700  1
  N  52  1  0.03257000  0.06313800  0.60999000  1
  N  55  1  0.94052200  0.05012000  0.71897500  1
  N  65  1  0.94698400  0.02573400  0.78957400  1
  N  79  1  0.97626500  0.95498900  0.21913400  1
  N  89  1  0.98627200  0.96093200  0.29016000  1
  N  103  1  0.96478200  0.42260100  0.03269600  1
  N  113  1  0.96362700  0.56503700  0.03180400  1
  N  127  1  0.57103400  0.97298000  0.53493300  1
  N  137  1  0.42827700  0.96709600  0.53601700  1
  N  600  1  0.38588600  0.07632150  0.09573300  1
  N  607  1  0.33760800  0.42121600  0.90813700  1
  N  615  1  0.36040400  0.28477400  0.89278900  1
  N  616  1  0.33540000  0.46123500  0.97654800  1
  N  617  1  0.34694400  0.03797350  0.02968500  1
  N  618  1  0.40464900  0.21558400  0.10887400  1
  N  626  1  0.53050600  0.28919700  0.59967900  1
  N  633  1  0.19331890  0.23734400  0.40892100  1
  N  641  1  0.33123000  0.25843000  0.39502000  1
  N  642  1  0.14969190  0.23715600  0.47701300  1
  N  643  1  0.57133300  0.24092600  0.53543700  1
  N  644  1  0.39291200  0.32052600  0.60999000  1
  N  647  1  0.30086400  0.30750800  0.71897500  1
  N  657  1  0.30732600  0.28312200  0.78957400  1
  N  671  1  0.33660700  0.21237700  0.21913400  1
  N  681  1  0.34661400  0.21832000  0.29016000  1
  N  695  1  0.32512400  0.67998900  0.03269600  1
  N  705  1  0.32396900  0.82242500  0.03180400  1
  N  719  1  0.93137600  0.23036800  0.53493300  1
  N  729  1  0.78861900  0.22448400  0.53601700  1
  N  1192  1  0.74622800  0.33370800  0.09573300  1
  N  1199  1  0.69795000  0.67860200  0.90813700  1
  N  1207  1  0.72074600  0.54216000  0.89278900  1
  N  1208  1  0.69574200  0.71862100  0.97654800  1
  N  1209  1  0.70728600  0.29536000  0.02968500  1
  N  1210  1  0.76499100  0.47297000  0.10887400  1
  N  1218  1  0.89084800  0.54658300  0.59967900  1
  N  1225  1  0.55366100  0.49473000  0.40892100  1
  N  1233  1  0.69157200  0.51581600  0.39502000  1
  N  1234  1  0.51003400  0.49454200  0.47701300  1
  N  1235  1  0.93167500  0.49831200  0.53543700  1
  N  1236  1  0.75325400  0.57791200  0.60999000  1
  N  1239  1  0.66120600  0.56489400  0.71897500  1
  N  1249  1  0.66766800  0.54050800  0.78957400  1
  N  1263  1  0.69694900  0.46976300  0.21913400  1
  N  1273  1  0.70695600  0.47570600  0.29016000  1
  N  1287  1  0.68546600  0.93737500  0.03269600  1
  N  1297  1  0.68431100  0.07981100  0.03180400  1
  N  1311  1  0.29171800  0.48775400  0.53493300  1
  N  1321  1  0.14896080  0.48187000  0.53601700  1
  O  71  1  0.14082900  0.87626500  0.77130200  1
  O  72  1  0.13316200  0.89825600  0.70254300  1
  O  95  1  0.14833200  0.14677400  0.27981600  1
  O  96  1  0.14056100  0.13928700  0.21020000  1
  O  119  1  0.89763600  0.56031700  0.91246800  1
  O  120  1  0.90114100  0.42085100  0.91300900  1
  O  143  1  0.42956900  0.89089400  0.41821800  1
  O  144  1  0.56872800  0.89976900  0.41667900  1
  O  663  1  0.50117100  0.13365250  0.77130200  1
  O  664  1  0.49350400  0.15564350  0.70254300  1
  O  687  1  0.50867400  0.40416200  0.27981600  1
  O  688  1  0.50090300  0.39667500  0.21020000  1
  O  711  1  0.25797800  0.81770500  0.91246800  1
  O  712  1  0.26148300  0.67823900  0.91300900  1
  O  735  1  0.78991100  0.14828150  0.41821800  1
  O  736  1  0.92907000  0.15715650  0.41667900  1
  O  1255  1  0.86151300  0.39103900  0.77130200  1
  O  1256  1  0.85384600  0.41303000  0.70254300  1
  O  1279  1  0.86901600  0.66154800  0.27981600  1
  O  1280  1  0.86124500  0.65406100  0.21020000  1
  O  1303  1  0.61832000  0.07509100  0.91246800  1
  O  1304  1  0.62182500  0.93562500  0.91300900  1
  O  1327  1  0.15025280  0.40566800  0.41821800  1
  O  1328  1  0.28941200  0.41454300  0.41667900  1
