# generated using pymatgen
data_Ba2P8H51C48S10N5O64
_symmetry_space_group_name_H-M   'P 1'
_cell_length_a   8.60609000
_cell_length_b   15.44209000
_cell_length_c   18.89848000
_cell_angle_alpha   97.11492000
_cell_angle_beta   94.56620000
_cell_angle_gamma   99.15532000
_symmetry_Int_Tables_number   1
_chemical_formula_structural   Ba2P8H51C48S10N5O64
_chemical_formula_sum   'Ba2 P8 H51 C48 S10 N5 O64'
_cell_volume   2447.76733319
_cell_formula_units_Z   1
loop_
 _symmetry_equiv_pos_site_id
 _symmetry_equiv_pos_as_xyz
  1  'x, y, z'
loop_
 _atom_site_type_symbol
 _atom_site_label
 _atom_site_symmetry_multiplicity
 _atom_site_fract_x
 _atom_site_fract_y
 _atom_site_fract_z
 _atom_site_occupancy
  Ba  Ba0  1  0.16175000  0.54467000  0.46776000  1
  Ba  Ba1  1  0.64843000  0.45532000  0.53218000  1
  P  P2  1  0.99067000  0.70747000  0.56186000  1
  P  P3  1  0.34014000  0.43010000  0.33889000  1
  P  P4  1  0.90478000  0.60107000  0.28477000  1
  P  P5  1  0.81962000  0.29252000  0.43808000  1
  P  P6  1  0.88212000  0.37753000  0.71436000  1
  P  P7  1  0.44365000  0.78308000  0.41885000  1
  P  P8  1  0.46099000  0.55652000  0.67459000  1
  P  P9  1  0.36614000  0.21769000  0.58236000  1
  H  H10  1  0.55482000  0.72444000  0.30403000  1
  H  H11  1  0.26854000  0.64172000  0.27911000  1
  H  H12  1  0.24510000  0.71049000  0.20823000  1
  H  H13  1  0.01207000  0.78179000  0.33249000  1
  H  H14  1  0.82724000  0.76341000  0.27502000  1
  H  H15  1  0.15577000  0.84817000  0.24028000  1
  H  H16  1  0.59854000  0.21126000  0.32296000  1
  H  H17  1  0.65706000  0.18863000  0.18270000  1
  H  H18  1  0.85644000  0.19687000  0.21999000  1
  H  H19  1  0.21873000  0.71321000  0.66356000  1
  H  H20  1  0.32048000  0.79258000  0.76974000  1
  H  H21  1  0.10466000  0.31657000  0.37509000  1
  H  H22  1  0.26923000  0.28501000  0.42130000  1
  H  H23  1  0.02970000  0.15836000  0.36525000  1
  H  H24  1  0.09422000  0.17654000  0.28015000  1
  H  H25  1  0.38276000  0.63901000  0.20318000  1
  H  H26  1  0.69526000  0.68002000  0.73721000  1
  H  H27  1  0.64782000  0.69186000  0.85347000  1
  H  H28  1  0.45646000  0.71540000  0.83696000  1
  H  H29  1  0.01498000  0.22596000  0.69711000  1
  H  H30  1  0.01793000  0.26380000  0.79193000  1
  H  H31  1  0.81131000  0.13675000  0.80398000  1
  H  H32  1  0.33714000  0.27780000  0.73423000  1
  H  H33  1  0.53797000  0.30099000  0.71064000  1
  H  H34  1  0.39901000  0.16500000  0.80522000  1
  H  H35  1  0.57886000  0.16039000  0.76998000  1
  H  H36  1  0.68940000  0.69782000  0.47359000  1
  H  H37  1  0.52391000  0.96221000  0.40663000  1
  H  H38  1  0.08828000  0.90178000  0.54135000  1
  H  H39  1  0.11440000  0.30323000  0.52774000  1
  H  H40  1  0.18074000  0.04047000  0.55371000  1
  H  H41  1  0.64174000  0.11486000  0.41384000  1
  H  H42  1  0.51758000  0.52931000  0.82238000  1
  H  H43  1  0.36793000  0.62307000  0.94141000  1
  H  H44  1  0.45684000  0.63873000  0.07052000  1
  H  H45  1  0.32151000  0.34051000  0.92939000  1
  H  H46  1  0.46362000  0.35864000  0.05013000  1
  H  H47  1  0.04811000  0.41497000  0.85972000  1
  H  H48  1  0.73844000  0.57295000  0.14105000  1
  H  H49  1  0.16934000  0.42600000  0.64429000  1
  H  H50  1  0.61443000  0.56529000  0.35436000  1
  H  H51  1  0.92599000  0.59081000  0.81972000  1
  H  H52  1  0.11324000  0.74272000  0.93239000  1
  H  H53  1  0.37789000  0.02245000  0.27826000  1
  H  H54  1  0.35844000  0.81878000  0.12923000  1
  H  H55  1  0.87971000  0.87087000  0.71083000  1
  H  H56  1  0.80824000  0.16372000  0.60905000  1
  H  H57  1  0.20764000  0.12208000  0.89015000  1
  H  H58  1  0.80818000  0.24030000  0.91423000  1
  H  H59  1  0.07707000  0.29799000  0.20885000  1
  H  H60  1  0.79354000  0.43922000  0.34740000  1
  C  C61  1  0.32912000  0.68175000  0.24142000  1
  C  C62  1  0.95717000  0.76706000  0.27599000  1
  C  C63  1  0.02525000  0.84169000  0.23458000  1
  C  C64  1  0.70050000  0.24162000  0.29769000  1
  C  C65  1  0.73185000  0.18040000  0.23150000  1
  C  C66  1  0.12366000  0.72654000  0.69714000  1
  C  C67  1  0.20131000  0.80603000  0.75599000  1
  C  C68  1  0.20175000  0.27922000  0.36792000  1
  C  C69  1  0.13322000  0.18228000  0.33809000  1
  C  C70  1  0.45613000  0.75440000  0.28124000  1
  C  C71  1  0.59501000  0.71444000  0.74329000  1
  C  C72  1  0.58008000  0.73528000  0.82523000  1
  C  C73  1  0.94279000  0.22838000  0.74351000  1
  C  C74  1  0.88653000  0.13518000  0.75941000  1
  C  C75  1  0.44389000  0.24869000  0.72249000  1
  C  C76  1  0.50065000  0.20642000  0.78742000  1
  C  C77  1  0.65588000  0.82822000  0.45377000  1
  C  C78  1  0.89819000  0.79188000  0.51190000  1
  C  C79  1  0.06585000  0.23328000  0.52035000  1
  C  C80  1  0.16070000  0.17388000  0.54260000  1
  C  C81  1  0.10263000  0.08223000  0.53410000  1
  C  C82  1  0.94904000  0.04599000  0.50065000  1
  C  C83  1  0.85657000  0.10821000  0.47415000  1
  C  C84  1  0.88443000  0.95030000  0.49254000  1
  C  C85  1  0.72594000  0.92023000  0.46015000  1
  C  C86  1  0.64181000  0.98261000  0.43376000  1
  C  C87  1  0.70725000  0.07263000  0.43935000  1
  C  C88  1  0.96833000  0.88365000  0.51733000  1
  C  C89  1  0.74494000  0.76646000  0.47743000  1
  C  C90  1  0.91547000  0.20414000  0.48360000  1
  C  C91  1  0.58074000  0.54901000  0.29723000  1
  C  C92  1  0.44003000  0.49027000  0.27165000  1
  C  C93  1  0.39475000  0.46967000  0.19601000  1
  C  C94  1  0.50173000  0.50645000  0.14919000  1
  C  C95  1  0.65207000  0.55257000  0.17709000  1
  C  C96  1  0.69405000  0.56964000  0.25085000  1
  C  C97  1  0.43495000  0.57377000  0.03913000  1
  C  C98  1  0.38113000  0.56478000  0.96625000  1
  C  C99  1  0.34017000  0.48012000  0.92650000  1
  C  C100  1  0.35848000  0.40589000  0.95925000  1
  C  C101  1  0.43241000  0.41593000  0.02864000  1
  C  C102  1  0.45897000  0.49876000  0.07103000  1
  C  C103  1  0.13543000  0.43060000  0.82293000  1
  C  C104  1  0.09136000  0.41591000  0.74894000  1
  C  C105  1  0.35569000  0.48026000  0.72801000  1
  C  C106  1  0.40120000  0.49307000  0.80172000  1
  C  C107  1  0.29142000  0.46753000  0.84934000  1
  C  C108  1  0.20498000  0.43465000  0.70132000  1
  S  S109  1  0.06284000  0.62874000  0.73397000  1
  S  S110  1  0.12197000  0.81527000  0.84160000  1
  S  S111  1  0.27403000  0.11141000  0.35018000  1
  S  S112  1  0.53551000  0.81941000  0.21749000  1
  S  S113  1  0.63778000  0.80453000  0.69404000  1
  S  S114  1  0.77453000  0.06745000  0.68242000  1
  S  S115  1  0.05223000  0.09059000  0.79120000  1
  S  S116  1  0.60033000  0.28040000  0.86411000  1
  S  S117  1  0.21421000  0.39722000  0.15721000  1
  S  S118  1  0.66313000  0.33767000  0.26639000  1
  N  N119  1  0.69872000  0.08853000  0.24167000  1
  N  N120  1  0.22243000  0.89221000  0.72996000  1
  N  N121  1  0.63453000  0.82739000  0.85759000  1
  N  N122  1  0.98708000  0.92654000  0.26486000  1
  N  N123  1  0.96816000  0.82059000  0.15791000  1
  O  O124  1  0.16499000  0.72187000  0.54149000  1
  O  O125  1  0.89301000  0.60848000  0.53915000  1
  O  O126  1  0.38910000  0.66749000  0.41386000  1
  O  O127  1  0.32928000  0.82527000  0.46631000  1
  O  O128  1  0.99227000  0.74257000  0.65533000  1
  O  O129  1  0.39130000  0.80849000  0.33304000  1
  O  O130  1  0.17207000  0.45760000  0.32905000  1
  O  O131  1  0.96437000  0.62205000  0.37734000  1
  O  O132  1  0.98845000  0.52564000  0.25427000  1
  O  O133  1  0.29945000  0.31451000  0.31938000  1
  O  O134  1  0.99393000  0.68755000  0.24373000  1
  O  O135  1  0.64530000  0.27807000  0.45848000  1
  O  O136  1  0.91728000  0.39152000  0.46079000  1
  O  O137  1  0.42120000  0.33251000  0.58609000  1
  O  O138  1  0.83764000  0.26673000  0.34505000  1
  O  O139  1  0.38362000  0.54548000  0.58456000  1
  O  O140  1  0.84592000  0.37794000  0.62261000  1
  O  O141  1  0.77164000  0.43567000  0.75040000  1
  O  O142  1  0.81199000  0.27021000  0.73012000  1
  O  O143  1  0.42668000  0.45451000  0.41538000  1
  O  O144  1  0.63822000  0.54234000  0.67093000  1
  O  O145  1  0.45203000  0.66562000  0.70936000  1
  O  O146  1  0.48129000  0.17606000  0.53549000  1
  O  O147  1  0.40585000  0.17972000  0.66461000  1
  O  O148  1  0.61366000  0.03118000  0.19163000  1
  O  O149  1  0.77344000  0.06203000  0.29492000  1
  O  O150  1  0.01629000  0.55677000  0.67168000  1
  O  O151  1  0.20071000  0.61338000  0.78071000  1
  O  O152  1  0.91135000  0.63154000  0.78411000  1
  O  O153  1  0.32458000  0.95722000  0.76564000  1
  O  O154  1  0.16023000  0.90212000  0.66728000  1
  O  O155  1  0.18723000  0.90430000  0.88403000  1
  O  O156  1  0.94595000  0.80467000  0.83051000  1
  O  O157  1  0.17272000  0.73769000  0.88972000  1
  O  O158  1  0.40851000  0.16236000  0.39992000  1
  O  O159  1  0.20540000  0.03271000  0.38365000  1
  O  O160  1  0.33877000  0.07811000  0.27145000  1
  O  O161  1  0.65538000  0.89297000  0.25759000  1
  O  O162  1  0.61473000  0.76388000  0.16531000  1
  O  O163  1  0.39537000  0.86204000  0.17284000  1
  O  O164  1  0.68185000  0.76767000  0.62288000  1
  O  O165  1  0.49518000  0.84642000  0.68017000  1
  O  O166  1  0.78703000  0.88000000  0.73667000  1
  O  O167  1  0.72818000  0.84371000  0.91696000  1
  O  O168  1  0.55954000  0.88931000  0.83964000  1
  O  O169  1  0.93875000  0.93649000  0.32844000  1
  O  O170  1  0.02204000  0.99568000  0.23255000  1
  O  O171  1  0.63131000  0.01551000  0.70687000  1
  O  O172  1  0.87053000  0.00507000  0.64671000  1
  O  O173  1  0.71139000  0.12901000  0.62257000  1
  O  O174  1  0.99721000  0.00251000  0.81435000  1
  O  O175  1  0.15745000  0.08113000  0.73213000  1
  O  O176  1  0.14995000  0.15956000  0.86242000  1
  O  O177  1  0.52873000  0.25275000  0.92951000  1
  O  O178  1  0.58220000  0.37384000  0.85745000  1
  O  O179  1  0.79477000  0.27739000  0.87574000  1
  O  O180  1  0.12927000  0.44381000  0.10487000  1
  O  O181  1  0.25394000  0.31468000  0.11707000  1
  O  O182  1  0.08596000  0.36314000  0.21410000  1
  O  O183  1  0.88029000  0.86914000  0.12696000  1
  O  O184  1  0.01652000  0.75690000  0.11851000  1
  O  O185  1  0.77935000  0.36887000  0.21603000  1
  O  O186  1  0.50128000  0.31711000  0.22684000  1
  O  O187  1  0.68088000  0.41092000  0.34076000  1
