# generated using pymatgen
data_H18C35N6
_symmetry_space_group_name_H-M   'P 1'
_cell_length_a   35.55017459
_cell_length_b   35.54983206
_cell_length_c   35.54160447
_cell_angle_alpha   70.47102479
_cell_angle_beta   70.58631936
_cell_angle_gamma   109.45287794
_symmetry_Int_Tables_number   1
_chemical_formula_structural   H18C35N6
_chemical_formula_sum   'H108 C210 N36'
_cell_volume   34585.27343984
_cell_formula_units_Z   6
loop_
 _symmetry_equiv_pos_site_id
 _symmetry_equiv_pos_as_xyz
  1  'x, y, z'
loop_
 _atom_site_type_symbol
 _atom_site_label
 _atom_site_symmetry_multiplicity
 _atom_site_fract_x
 _atom_site_fract_y
 _atom_site_fract_z
 _atom_site_occupancy
  C  1  1  0.58941450  0.67148350  0.74600800  1
  C  2  1  0.60686850  0.71454300  0.74404550  1
  C  3  1  0.58200800  0.73820000  0.74464300  1
  C  4  1  0.53857600  0.72024500  0.74706300  1
  C  5  1  0.52025850  0.67556800  0.75210850  1
  C  6  1  0.54537600  0.65227400  0.75038900  1
  C  7  1  0.50931150  0.74351500  0.75166950  1
  C  8  1  0.48005550  0.71888550  0.80420300  1
  C  9  1  0.43665300  0.67785200  0.82968400  1
  C  10  1  0.41182850  0.65357800  0.87820250  1
  C  11  1  0.42928350  0.66908200  0.90381150  1
  C  12  1  0.47327800  0.70877950  0.87898050  1
  C  13  1  0.49837800  0.73216550  0.83056850  1
  C  14  1  0.53674700  0.79607700  0.72879300  1
  C  15  1  0.48186400  0.73893100  0.72654100  1
  C  16  1  0.44251600  0.74444550  0.73864950  1
  C  17  1  0.41955050  0.74485250  0.71309500  1
  C  18  1  0.43554700  0.74112100  0.67307900  1
  C  19  1  0.47492600  0.73605800  0.66042100  1
  C  20  1  0.49806900  0.73628400  0.68569800  1
  C  21  1  0.57608200  0.82328750  0.68392850  1
  C  22  1  0.59908000  0.87179350  0.66055350  1
  C  23  1  0.58307450  0.89582550  0.68025000  1
  C  24  1  0.54369450  0.86913500  0.72468250  1
  C  25  1  0.52054900  0.82072850  0.74762050  1
  C  42  1  0.58718500  0.31727150  0.09778750  1
  C  43  1  0.54609050  0.27422700  0.12336950  1
  C  44  1  0.52187200  0.25053100  0.17188900  1
  C  45  1  0.53742500  0.26842750  0.19740350  1
  C  46  1  0.57704550  0.31310150  0.17106200  1
  C  47  1  0.60204000  0.33642400  0.12265000  1
  C  48  1  0.50954000  0.24516750  0.24993350  1
  C  49  1  0.48166650  0.26982400  0.25455550  1
  C  50  1  0.49722250  0.31085550  0.25694700  1
  C  51  1  0.47299200  0.33514600  0.25752100  1
  C  52  1  0.43189700  0.31966900  0.25555100  1
  C  53  1  0.41704450  0.27999450  0.25119600  1
  C  54  1  0.44204750  0.25658750  0.24948000  1
  C  55  1  0.47981600  0.19261300  0.27504700  1
  C  56  1  0.53924100  0.24972750  0.27280650  1
  C  57  1  0.52166250  0.24422850  0.31767200  1
  C  58  1  0.54682050  0.24382350  0.34103400  1
  C  59  1  0.59051250  0.24745750  0.32132400  1
  C  60  1  0.60817500  0.25245400  0.27690200  1
  C  61  1  0.58266750  0.25225550  0.25399000  1
  C  62  1  0.49738250  0.16532800  0.26295750  1
  C  63  1  0.47221800  0.11682450  0.28850550  1
  C  64  1  0.42851700  0.09285700  0.32854100  1
  C  65  1  0.41086400  0.11961600  0.34121200  1
  C  66  1  0.43638400  0.16801800  0.31592700  1
  C  83  1  0.91229150  0.57210100  0.67789350  1
  C  84  1  0.88672100  0.53100600  0.72098800  1
  C  85  1  0.83823550  0.50678100  0.74464650  1
  C  86  1  0.81275400  0.52231350  0.72663750  1
  C  87  1  0.83907550  0.56194700  0.68193750  1
  C  88  1  0.88745550  0.58696550  0.65866300  1
  C  89  1  0.76025500  0.49441300  0.74987600  1
  C  90  1  0.75559550  0.46649400  0.72527550  1
  C  91  1  0.75316600  0.48202650  0.68422850  1
  C  92  1  0.75260750  0.45777900  0.65997250  1
  C  93  1  0.75460250  0.41667750  0.67551600  1
  C  94  1  0.75893550  0.40182300  0.71523950  1
  C  95  1  0.76065750  0.42685450  0.73860400  1
  C  96  1  0.73517100  0.46470500  0.80244300  1
  C  97  1  0.73741000  0.52413350  0.74522550  1
  C  98  1  0.69255500  0.50651350  0.75072250  1
  C  99  1  0.66919800  0.53165750  0.75111850  1
  C  100  1  0.68892050  0.57538700  0.74744050  1
  C  101  1  0.73336550  0.59311700  0.74237550  1
  C  102  1  0.75627350  0.56762350  0.74259200  1
  C  103  1  0.74728750  0.48234100  0.82968350  1
  C  104  1  0.72177050  0.45720000  0.87818550  1
  C  105  1  0.68172500  0.41348100  0.90218400  1
  C  106  1  0.66904950  0.39574650  0.87546500  1
  C  107  1  0.69432200  0.42122550  0.82706150  1
  C  124  1  0.26413550  0.57433300  0.32379650  1
  C  125  1  0.26607450  0.59179750  0.28071500  1
  C  126  1  0.26555800  0.56696950  0.25704150  1
  C  127  1  0.26324000  0.52355600  0.27499300  1
  C  128  1  0.25825000  0.50524100  0.31967400  1
  C  129  1  0.25988350  0.53032450  0.34299100  1
  C  130  1  0.25859950  0.49429250  0.25174000  1
  C  131  1  0.20610150  0.46502150  0.27633300  1
  C  132  1  0.18065050  0.42159300  0.31740250  1
  C  133  1  0.13216450  0.39675250  0.34168300  1
  C  134  1  0.10655100  0.41420450  0.32614350  1
  C  135  1  0.13135800  0.45822750  0.28641150  1
  C  136  1  0.17973950  0.48333150  0.26300200  1
  C  137  1  0.28143950  0.52177050  0.19917600  1
  C  138  1  0.28369350  0.46682500  0.25638350  1
  C  139  1  0.27159700  0.42746900  0.25087500  1
  C  140  1  0.29716750  0.40453900  0.25044650  1
  C  141  1  0.33723950  0.42062050  0.25408800  1
  C  142  1  0.34990100  0.46001500  0.25913500  1
  C  143  1  0.32458200  0.48309900  0.25896100  1
  C  144  1  0.32627100  0.56114900  0.17194500  1
  C  145  1  0.34963050  0.58409300  0.12344250  1
  C  146  1  0.32992200  0.56803850  0.09942150  1
  C  147  1  0.28551050  0.52862950  0.12613000  1
  C  148  1  0.26260900  0.50550750  0.17453350  1
  C  165  1  0.33443100  0.73944100  0.57853900  1
  C  166  1  0.34988250  0.73745250  0.53745800  1
  C  167  1  0.32558250  0.73801750  0.51322100  1
  C  168  1  0.28458350  0.74045350  0.52874600  1
  C  169  1  0.27133350  0.74549250  0.56837500  1
  C  170  1  0.29477700  0.74381750  0.59336350  1
  C  171  1  0.25994950  0.74509700  0.50081850  1
  C  172  1  0.28323350  0.79764050  0.47285100  1
  C  173  1  0.26533000  0.82316200  0.48835600  1
  C  174  1  0.28904750  0.87168350  0.46411700  1
  C  175  1  0.33208500  0.89725200  0.42303200  1
  C  176  1  0.35120600  0.87236850  0.40820350  1
  C  177  1  0.32786050  0.82395150  0.43320600  1
  C  178  1  0.26449550  0.72219400  0.47117450  1
  C  179  1  0.20743100  0.72002500  0.53051900  1
  C  180  1  0.18019900  0.73218500  0.51286400  1
  C  181  1  0.13173100  0.70666600  0.53800100  1
  C  182  1  0.10775750  0.66661050  0.58176000  1
  C  183  1  0.13447200  0.65390650  0.59951550  1
  C  184  1  0.18284100  0.67915850  0.57402950  1
  C  185  1  0.25902650  0.67732700  0.48884650  1
  C  186  1  0.25861400  0.65395050  0.46373650  1
  C  187  1  0.26229300  0.67368300  0.41997500  1
  C  188  1  0.26730050  0.71813050  0.40220700  1
  C  189  1  0.26708200  0.74105250  0.42767350  1
  C  206  1  0.68433850  0.09142300  0.58092750  1
  C  207  1  0.66889350  0.11704550  0.59837900  1
  C  208  1  0.69321700  0.16556550  0.57355250  1
  C  209  1  0.73424100  0.19103500  0.53014800  1
  C  210  1  0.74750050  0.16466800  0.51184850  1
  C  211  1  0.72404350  0.11624950  0.53693900  1
  C  212  1  0.75887300  0.24357550  0.50083450  1
  C  213  1  0.73560350  0.24822950  0.47154100  1
  C  214  1  0.75354950  0.25065250  0.42810300  1
  C  215  1  0.72986650  0.25119250  0.40324700  1
  C  216  1  0.68681650  0.24922450  0.42068500  1
  C  217  1  0.66764700  0.24489800  0.46470300  1
  C  218  1  0.69095850  0.24321750  0.48982400  1
  C  219  1  0.75429150  0.26869550  0.52825600  1
  C  220  1  0.81139300  0.26638400  0.47342300  1
  C  221  1  0.83861250  0.31126450  0.43403800  1
  C  222  1  0.88708200  0.33460150  0.41109450  1
  C  223  1  0.91107600  0.31484750  0.42718850  1
  C  224  1  0.88437450  0.27039400  0.46661250  1
  C  225  1  0.83600400  0.24750100  0.48971300  1
  C  226  1  0.75975500  0.25654900  0.56766900  1
  C  227  1  0.76010950  0.28208200  0.59062250  1
  C  228  1  0.75643050  0.32215300  0.57450850  1
  C  229  1  0.75142000  0.33484900  0.53505800  1
  C  230  1  0.75166600  0.30957500  0.51194800  1
  C  493  1  0.35419100  0.59135950  0.05006550  1
  C  495  1  0.40409200  0.66515000  0.98037300  1
  C  496  1  0.40426750  0.64415450  0.95293600  1
  C  498  1  0.35485550  0.57019100  0.02239750  1
  C  500  1  0.33623000  0.52608500  0.03790500  1
  C  502  1  0.36330450  0.39733000  0.25309350  1
  C  504  1  0.35926650  0.32356100  0.27686850  1
  C  505  1  0.40768300  0.34457700  0.25570500  1
  C  507  1  0.41212550  0.41852050  0.23126500  1
  C  509  1  0.44068950  0.46263250  0.20583400  1
  C  511  1  0.66462950  0.60044950  0.74843100  1
  C  513  1  0.61461900  0.62016800  0.72466000  1
  C  514  1  0.61448300  0.64743050  0.74583050  1
  C  516  1  0.66400500  0.62745450  0.77026450  1
  C  518  1  0.68270350  0.63060550  0.79569400  1
  C  520  1  0.65569900  0.38841600  0.95153800  1
  C  522  1  0.65979200  0.36861500  0.02125800  1
  C  523  1  0.61137700  0.34137250  0.04866450  1
  C  525  1  0.60688100  0.36144900  0.97917700  1
  C  527  1  0.57829800  0.35832450  0.96363450  1
  C  529  1  0.75733950  0.34817800  0.59782150  1
  C  531  1  0.73341500  0.34404100  0.67161100  1
  C  532  1  0.75453350  0.39248750  0.65059900  1
  C  534  1  0.77911200  0.39702850  0.57664050  1
  C  536  1  0.80457200  0.42565450  0.53253650  1
  C  538  1  0.96040150  0.33911000  0.40387250  1
  C  540  1  0.02999250  0.38904900  0.33007950  1
  C  541  1  0.05746050  0.38917800  0.35107350  1
  C  543  1  0.98809950  0.33972850  0.42504000  1
  C  545  1  0.97265650  0.32105750  0.46914600  1
  C  547  1  0.05843550  0.64059150  0.60682800  1
  C  549  1  0.98880750  0.64473700  0.62651250  1
  C  550  1  0.96138050  0.59629100  0.65382950  1
  C  552  1  0.03077500  0.59174100  0.63388800  1
  C  554  1  0.04625300  0.56311100  0.63708600  1
  C  556  1  0.26138000  0.64940850  0.39490950  1
  C  558  1  0.28533450  0.59953400  0.37520250  1
  C  559  1  0.26419050  0.59935000  0.34788650  1
  C  561  1  0.23956050  0.64872100  0.36786250  1
  C  563  1  0.21409950  0.66735700  0.36464850  1
  C  565  1  0.40339000  0.04349650  0.35455950  1
  C  567  1  0.38351000  0.97385350  0.35040850  1
  C  568  1  0.35623000  0.94637700  0.39885100  1
  C  570  1  0.37636000  0.01578550  0.40340750  1
  C  572  1  0.37325650  0.03123500  0.43203950  1
  C  574  1  0.61561900  0.24652650  0.34559250  1
  C  576  1  0.63543150  0.27047050  0.39544600  1
  C  577  1  0.66272200  0.24931900  0.39563900  1
  C  579  1  0.64264500  0.22470550  0.34628550  1
  C  581  1  0.64576750  0.19920700  0.32770050  1
  C  583  1  0.41219950  0.74205300  0.64705350  1
  C  585  1  0.33842550  0.71817300  0.65118350  1
  C  586  1  0.35936950  0.73932250  0.60273800  1
  C  588  1  0.43331550  0.76386050  0.59820400  1
  C  590  1  0.47738250  0.78932100  0.56958450  1
  C  592  1  0.60645200  0.94518550  0.65596450  1
  C  594  1  0.68025900  0.01476600  0.60616200  1
  C  595  1  0.65935150  0.04229800  0.60593050  1
  C  597  1  0.58537200  0.97295100  0.65522800  1
  C  599  1  0.54131050  0.95754350  0.67380200  1
  H  26  1  0.39163900  0.74936300  0.72333200  1
  H  27  1  0.43039850  0.74894550  0.76627200  1
  H  28  1  0.48737950  0.73203700  0.63252750  1
  H  29  1  0.52768500  0.73498000  0.67323500  1
  H  30  1  0.58818750  0.80777300  0.66731750  1
  H  31  1  0.62695250  0.88944400  0.62811550  1
  H  32  1  0.53124200  0.88458650  0.74113950  1
  H  33  1  0.49094150  0.80359600  0.77853750  1
  H  34  1  0.53070800  0.75967450  0.81447850  1
  H  35  1  0.48846100  0.72002300  0.89592100  1
  H  36  1  0.38051750  0.62444350  0.89469800  1
  H  37  1  0.42276400  0.66449750  0.81306350  1
  H  38  1  0.48792200  0.65932100  0.75694000  1
  H  39  1  0.59590000  0.76871000  0.74409700  1
  H  40  1  0.63821000  0.72938650  0.74181050  1
  H  41  1  0.53022350  0.62018300  0.75426850  1
  H  67  1  0.53208750  0.23930800  0.37346350  1
  H  68  1  0.48957500  0.23978700  0.33428400  1
  H  69  1  0.64005250  0.25641300  0.26043150  1
  H  70  1  0.59640100  0.25352850  0.22307650  1
  H  71  1  0.52947300  0.18079400  0.23531900  1
  H  72  1  0.48693150  0.09912600  0.27826750  1
  H  73  1  0.37898100  0.10421900  0.36911900  1
  H  74  1  0.42265900  0.18519400  0.32839900  1
  H  75  1  0.43062400  0.22908350  0.24464150  1
  H  76  1  0.38886050  0.26875550  0.24726400  1
  H  77  1  0.48562050  0.36426250  0.25973800  1
  H  78  1  0.52718150  0.32418900  0.25750450  1
  H  79  1  0.58847300  0.32932650  0.18717050  1
  H  80  1  0.49190650  0.22004000  0.18848850  1
  H  81  1  0.53346250  0.25941850  0.10685200  1
  H  82  1  0.63023300  0.36851850  0.10573350  1
  H  108  1  0.63676550  0.51689000  0.75565350  1
  H  109  1  0.67593600  0.47439300  0.75520400  1
  H  110  1  0.74984150  0.62502600  0.73837950  1
  H  111  1  0.78719100  0.58139100  0.74130600  1
  H  112  1  0.77491850  0.51445900  0.81418850  1
  H  113  1  0.73199250  0.47198100  0.89585450  1
  H  114  1  0.64114100  0.36384500  0.89089300  1
  H  115  1  0.68184500  0.40745450  0.80990450  1
  H  116  1  0.76550750  0.41544750  0.76613200  1
  H  117  1  0.76290350  0.37365200  0.72651450  1
  H  118  1  0.75040500  0.47040800  0.63081800  1
  H  119  1  0.75261250  0.51199900  0.67083950  1
  H  120  1  0.82297850  0.57335850  0.66565300  1
  H  121  1  0.82164200  0.47680350  0.77516950  1
  H  122  1  0.90322400  0.51838200  0.73585500  1
  H  123  1  0.90436700  0.61514050  0.62652850  1
  H  149  1  0.28694300  0.37664100  0.24590900  1
  H  150  1  0.24394950  0.41530700  0.24640650  1
  H  151  1  0.37783050  0.47252900  0.26310050  1
  H  152  1  0.33705850  0.51274200  0.26023050  1
  H  153  1  0.34287700  0.57331000  0.18745300  1
  H  154  1  0.38203000  0.61202700  0.10578600  1
  H  155  1  0.26904500  0.51613150  0.11069050  1
  H  156  1  0.23171350  0.47586600  0.19167650  1
  H  157  1  0.19581000  0.51567000  0.23545600  1
  H  158  1  0.11442400  0.47339700  0.27510700  1
  H  159  1  0.11569250  0.36542900  0.37084450  1
  H  160  1  0.19727100  0.40771250  0.33079950  1
  H  161  1  0.25348500  0.47290900  0.33592600  1
  H  162  1  0.26605650  0.58085550  0.22652800  1
  H  163  1  0.26821550  0.62311350  0.26587800  1
  H  164  1  0.25603550  0.51516350  0.37509200  1
  H  190  1  0.11406050  0.71693100  0.52322150  1
  H  191  1  0.19567250  0.75983600  0.48073150  1
  H  192  1  0.11907000  0.62599200  0.63144100  1
  H  193  1  0.19999350  0.66665550  0.58781800  1
  H  194  1  0.25457450  0.66070800  0.52097950  1
  H  195  1  0.25414750  0.62152650  0.47851700  1
  H  196  1  0.27128250  0.73461100  0.37028050  1
  H  197  1  0.26835600  0.77197950  0.41387050  1
  H  198  1  0.34406000  0.80782050  0.42180650  1
  H  199  1  0.38327300  0.88927350  0.37999750  1
  H  200  1  0.27427000  0.88821800  0.47673000  1
  H  201  1  0.23486500  0.80657400  0.51833700  1
  H  202  1  0.24383150  0.75032750  0.57978300  1
  H  203  1  0.33891250  0.73747500  0.48325550  1
  H  204  1  0.37898450  0.73522100  0.52484850  1
  H  205  1  0.28351350  0.74768650  0.62158000  1
  H  231  1  0.90473400  0.36705150  0.38318350  1
  H  232  1  0.82312700  0.32791350  0.42186550  1
  H  233  1  0.89979350  0.25389300  0.47913350  1
  H  234  1  0.81886300  0.21657200  0.51936300  1
  H  235  1  0.76422650  0.22889200  0.57986650  1
  H  236  1  0.76461850  0.27183500  0.61856650  1
  H  237  1  0.74742150  0.36277100  0.52252450  1
  H  238  1  0.75039450  0.32206850  0.48228100  1
  H  239  1  0.67472750  0.23839700  0.52216150  1
  H  240  1  0.63556650  0.24101600  0.47984850  1
  H  241  1  0.74468150  0.25338850  0.37192200  1
  H  242  1  0.78403150  0.25115850  0.41424300  1
  H  243  1  0.77501200  0.18075650  0.47952050  1
  H  244  1  0.67988450  0.18219900  0.58741950  1
  H  245  1  0.63975700  0.10055450  0.62968150  1
  H  246  1  0.73528200  0.09930550  0.52178050  1
  H  499  1  0.42134050  0.70012700  0.96610150  1
  H  508  1  0.33858600  0.28858400  0.29458300  1
  H  517  1  0.59732500  0.61717450  0.70696550  1
  H  526  1  0.68048700  0.37156400  0.03555000  1
  H  535  1  0.71570200  0.32331800  0.70658800  1
  H  544  1  0.04421200  0.40629850  0.29510450  1
  H  553  1  0.97455550  0.66546300  0.62348250  1
  H  562  1  0.30308800  0.58231500  0.37821800  1
  H  571  1  0.38646850  0.95962300  0.32967850  1
  H  580  1  0.63247450  0.28823800  0.41264050  1
  H  589  1  0.30347850  0.70045250  0.67190200  1
  H  598  1  0.71520450  0.02895700  0.58899150  1
  N  494  1  0.37931050  0.63826750  0.02692500  1
  N  497  1  0.37960150  0.59734350  0.97582700  1
  N  501  1  0.31992900  0.48715650  0.05137350  1
  N  503  1  0.33957300  0.35042300  0.27483000  1
  N  506  1  0.43156700  0.39138700  0.23361600  1
  N  510  1  0.46612100  0.50156200  0.18325000  1
  N  512  1  0.63944050  0.59843500  0.72669950  1
  N  515  1  0.63921850  0.64923900  0.76791850  1
  N  519  1  0.69906750  0.63346950  0.81827700  1
  N  521  1  0.67945850  0.39037650  0.97470100  1
  N  524  1  0.58746350  0.33961650  0.02574900  1
  N  528  1  0.55285250  0.35548900  0.95013750  1
  N  530  1  0.73555700  0.32438250  0.64473350  1
  N  533  1  0.77666950  0.41643450  0.60378600  1
  N  537  1  0.82718200  0.45113700  0.49361200  1
  N  539  1  0.98347900  0.36426050  0.35696450  1
  N  542  1  0.03463200  0.36447350  0.39788550  1
  N  546  1  0.95924850  0.30471800  0.50807050  1
  N  548  1  0.03532450  0.66439050  0.60477300  1
  N  551  1  0.98424000  0.57234000  0.65568200  1
  N  555  1  0.05969250  0.53762300  0.63998950  1
  N  557  1  0.28319450  0.62431350  0.39695100  1
  N  560  1  0.24201850  0.62399100  0.34604850  1
  N  564  1  0.19149000  0.68366550  0.36173250  1
  N  566  1  0.40533350  0.02040350  0.33075900  1
  N  569  1  0.35448400  0.96921950  0.42280550  1
  N  573  1  0.37043750  0.04465200  0.45752850  1
  N  575  1  0.61364850  0.26834800  0.37066450  1
  N  578  1  0.66449050  0.22714200  0.37102050  1
  N  582  1  0.64860400  0.17656450  0.31143750  1
  N  584  1  0.36532600  0.72027750  0.67084450  1
  N  587  1  0.40614800  0.76145350  0.57879350  1
  N  591  1  0.51627550  0.81193150  0.54410700  1
  N  593  1  0.65332800  0.96822300  0.63093200  1
  N  596  1  0.61257150  0.01951000  0.63051450  1
  N  600  1  0.50242450  0.94416450  0.69005400  1
