# generated using pymatgen
data_H13C15(N3O)2
_symmetry_space_group_name_H-M   'P 1'
_cell_length_a   24.74561240
_cell_length_b   25.99490000
_cell_length_c   39.38950000
_cell_angle_alpha   90.54730000
_cell_angle_beta   90.00000221
_cell_angle_gamma   118.42229637
_symmetry_Int_Tables_number   1
_chemical_formula_structural   H13C15(N3O)2
_chemical_formula_sum   'H104 C120 N48 O16'
_cell_volume   22282.24718803
_cell_formula_units_Z   8
loop_
 _symmetry_equiv_pos_site_id
 _symmetry_equiv_pos_as_xyz
  1  'x, y, z'
loop_
 _atom_site_type_symbol
 _atom_site_label
 _atom_site_symmetry_multiplicity
 _atom_site_fract_x
 _atom_site_fract_y
 _atom_site_fract_z
 _atom_site_occupancy
  C  1  1  0.27517150  0.69315150  0.92934000  1
  C  2  1  0.22039350  0.66861350  0.94867700  1
  C  3  1  0.19542550  0.70352150  0.96211900  1
  C  4  1  0.23082250  0.76553650  0.95915500  1
  C  5  1  0.29065900  0.79235900  0.94456700  1
  C  6  1  0.31037900  0.75507100  0.92814700  1
  C  9  1  0.29613050  0.65680050  0.91304200  1
  C  10  1  0.31285750  0.62047750  0.93223300  1
  C  11  1  0.33823150  0.58715350  0.91655800  1
  C  12  1  0.34337450  0.58866650  0.88047400  1
  C  13  1  0.32960600  0.62655000  0.86067400  1
  C  14  1  0.30751500  0.66106100  0.87760800  1
  C  23  1  0.34321250  0.63308050  0.82589700  1
  C  24  1  0.33197550  0.85351650  0.94695400  1
  C  25  1  0.13570250  0.67756850  0.97658900  1
  C  26  1  0.36106300  0.55700300  0.93715200  1
  C  31  1  0.77330350  0.33210150  0.42945600  1
  C  32  1  0.82853750  0.35702350  0.44868800  1
  C  33  1  0.85346850  0.32223650  0.46189800  1
  C  34  1  0.81760700  0.26016100  0.45894800  1
  C  35  1  0.75732800  0.23317200  0.44458300  1
  C  36  1  0.73761750  0.27017150  0.42826000  1
  C  39  1  0.75259550  0.36828750  0.41319700  1
  C  40  1  0.73617450  0.40525150  0.43242600  1
  C  41  1  0.71114150  0.43852150  0.41672800  1
  C  42  1  0.70612650  0.43632450  0.38061000  1
  C  43  1  0.71997200  0.39804700  0.36079900  1
  C  44  1  0.74155250  0.36349350  0.37768200  1
  C  53  1  0.70599800  0.39038400  0.32605900  1
  C  54  1  0.71570450  0.17219250  0.44706600  1
  C  55  1  0.91362300  0.34842100  0.47610800  1
  C  56  1  0.68847450  0.46926750  0.43730600  1
  C  61  1  0.59848850  0.32721350  0.03094700  1
  C  62  1  0.56702300  0.35407900  0.01519900  1
  C  63  1  0.51258050  0.32151450  0.99598400  1
  C  64  1  0.48939200  0.25988900  0.99273400  1
  C  65  1  0.52016350  0.23104950  0.00745700  1
  C  66  1  0.57485650  0.26580450  0.02649400  1
  C  69  1  0.65323850  0.36121850  0.05003200  1
  C  70  1  0.70770800  0.40524200  0.03504500  1
  C  71  1  0.76427750  0.43336350  0.05357400  1
  C  72  1  0.76309800  0.42163900  0.08901200  1
  C  73  1  0.70751300  0.38241900  0.10552300  1
  C  74  1  0.65464600  0.35026300  0.08500600  1
  C  83  1  0.69985100  0.37820900  0.14097300  1
  C  84  1  0.49922600  0.17011600  0.00240300  1
  C  85  1  0.48246700  0.34916600  0.97948000  1
  C  86  1  0.81906000  0.47288200  0.03658100  1
  C  91  1  0.45214550  0.70123350  0.53180900  1
  C  92  1  0.48370950  0.67419750  0.51604000  1
  C  93  1  0.53772200  0.70639600  0.49684100  1
  C  94  1  0.56035400  0.76784000  0.49363400  1
  C  95  1  0.52942300  0.79682300  0.50837000  1
  C  96  1  0.47515100  0.76240100  0.52738900  1
  C  99  1  0.39744950  0.66737150  0.55051800  1
  C  100  1  0.34287750  0.62368550  0.53486800  1
  C  101  1  0.28644450  0.59508050  0.55311300  1
  C  102  1  0.28777550  0.60619750  0.58876700  1
  C  103  1  0.34338650  0.64530550  0.60573900  1
  C  104  1  0.39629900  0.67775800  0.58573500  1
  C  113  1  0.35084200  0.64750500  0.64116200  1
  C  114  1  0.54977450  0.85749450  0.50329700  1
  C  115  1  0.56783550  0.67847650  0.48027700  1
  C  116  1  0.23165350  0.55538250  0.53571900  1
  C  121  1  0.31290650  0.64515850  0.69718300  1
  C  123  1  0.35160700  0.62546300  0.74877500  1
  C  124  1  0.31309550  0.63978650  0.76880500  1
  C  126  1  0.27409550  0.65947150  0.71698100  1
  C  129  1  0.20295000  0.69606800  0.71430000  1
  C  132  1  0.19120250  0.77588250  0.69302400  1
  C  136  1  0.10259800  0.67499800  0.69565700  1
  C  142  1  0.73948650  0.38486750  0.19707500  1
  C  144  1  0.69393800  0.39434900  0.24913300  1
  C  145  1  0.73884950  0.38898950  0.26877100  1
  C  147  1  0.78430900  0.37885300  0.21658900  1
  C  150  1  0.82641600  0.33537000  0.18030600  1
  C  153  1  0.88069100  0.28030200  0.17774200  1
  C  157  1  0.89429250  0.35373150  0.13365900  1
  C  163  1  0.35515100  0.95317600  0.96818100  1
  C  165  1  0.34952600  0.03996000  0.98430800  1
  C  166  1  0.41402750  0.07301650  0.98574100  1
  C  168  1  0.42030600  0.98696100  0.96817300  1
  C  171  1  0.50637600  0.98552800  0.94401400  1
  C  174  1  0.59787100  0.97747100  0.95171300  1
  C  178  1  0.52867150  0.93190950  0.90180100  1
  C  184  1  0.40435200  0.48892200  0.94102900  1
  C  186  1  0.46235500  0.48059900  0.98751700  1
  C  187  1  0.46211650  0.43123550  0.97225100  1
  C  189  1  0.40606850  0.44094850  0.92482900  1
  C  192  1  0.37485300  0.37996500  0.87558000  1
  C  195  1  0.27706250  0.34649550  0.84760900  1
  C  199  1  0.37546700  0.41406100  0.81885400  1
  C  205  1  0.04747000  0.59120500  0.00208000  1
  C  207  1  0.98390350  0.51335950  0.03974500  1
  C  208  1  0.93165300  0.51899100  0.03130000  1
  C  210  1  0.99533850  0.59814050  0.99401100  1
  C  213  1  0.95856950  0.64734750  0.95751700  1
  C  214  1  0.01237850  0.75069950  0.94629800  1
  C  220  1  0.69275650  0.07322850  0.46838500  1
  C  222  1  0.69874850  0.98714650  0.48466700  1
  C  223  1  0.63428350  0.95417250  0.48627900  1
  C  225  1  0.62760750  0.03947950  0.46856200  1
  C  228  1  0.54108150  0.04000950  0.44442500  1
  C  231  1  0.44982550  0.04853050  0.45211300  1
  C  235  1  0.51801700  0.09194900  0.40214000  1
  C  241  1  0.64550800  0.53764600  0.44130700  1
  C  243  1  0.58804650  0.54722850  0.48778200  1
  C  244  1  0.58822450  0.59625650  0.47270800  1
  C  246  1  0.64371950  0.58526950  0.42529200  1
  C  249  1  0.67456250  0.64503450  0.37630100  1
  C  252  1  0.77205050  0.67762450  0.34855100  1
  C  256  1  0.67330150  0.60947350  0.31945000  1
  C  262  1  0.00240350  0.43552350  0.50164700  1
  C  264  1  0.06673300  0.51411700  0.53962400  1
  C  265  1  0.11887900  0.50861400  0.53067200  1
  C  267  1  0.05443200  0.42869300  0.49306800  1
  C  270  1  0.09039850  0.37903250  0.45579700  1
  C  273  1  0.03608150  0.27558150  0.44355900  1
  C  277  1  0.05154600  0.34901600  0.39887700  1
  C  776  1  0.99662050  0.67701150  0.90079600  1
  H  7  1  0.19479000  0.62399200  0.94958700  1
  H  16  1  0.29802300  0.68893000  0.86369200  1
  H  19  1  0.39580550  0.77868750  0.92884900  1
  H  20  1  0.34338950  0.65333850  0.97579200  1
  H  21  1  0.18890800  0.80996200  0.95573800  1
  H  22  1  0.33151800  0.52042900  0.85684500  1
  H  27  1  0.38205450  0.63380350  0.81869300  1
  H  28  1  0.37513050  0.86799450  0.93767500  1
  H  29  1  0.11572800  0.70361100  0.98047700  1
  H  30  1  0.36494100  0.56463500  0.96278800  1
  H  37  1  0.85448700  0.40165300  0.44949000  1
  H  46  1  0.75079450  0.33515950  0.36370800  1
  H  49  1  0.65236900  0.24723300  0.42901700  1
  H  50  1  0.70544350  0.37337450  0.47573200  1
  H  51  1  0.85894300  0.21516500  0.45530400  1
  H  52  1  0.71789500  0.50394400  0.35715300  1
  H  57  1  0.66500500  0.38499700  0.31912300  1
  H  58  1  0.67227600  0.15762000  0.43799200  1
  H  59  1  0.93365700  0.32245600  0.47978400  1
  H  60  1  0.68458450  0.46218750  0.46290300  1
  H  67  1  0.58426800  0.39837900  0.01786700  1
  H  76  1  0.61445700  0.32081600  0.09624800  1
  H  79  1  0.63834250  0.24470050  0.02498900  1
  H  80  1  0.71620400  0.38683100  0.98925900  1
  H  81  1  0.40270250  0.21872850  0.98833200  1
  H  82  1  0.81626250  0.48928150  0.11444200  1
  H  87  1  0.65850550  0.36877050  0.14988000  1
  H  88  1  0.52808250  0.15335550  0.00800600  1
  H  89  1  0.44913800  0.32536000  0.96192900  1
  H  90  1  0.81526400  0.48815900  0.01333500  1
  H  97  1  0.46674550  0.63000350  0.51859700  1
  H  106  1  0.43656200  0.70667600  0.59749300  1
  H  109  1  0.41129550  0.78296850  0.52590900  1
  H  110  1  0.33410750  0.64262150  0.48948800  1
  H  111  1  0.64693850  0.80939850  0.48924400  1
  H  112  1  0.23547150  0.53790550  0.61312500  1
  H  117  1  0.38976350  0.65001950  0.64998200  1
  H  118  1  0.52071850  0.87412650  0.50888000  1
  H  119  1  0.60080200  0.70183200  0.46274800  1
  H  120  1  0.23523650  0.54038850  0.51215800  1
  H  127  1  0.37986750  0.61157550  0.75949200  1
  H  131  1  0.20007850  0.70066250  0.73927500  1
  H  133  1  0.24051250  0.80057650  0.68810900  1
  H  134  1  0.18176450  0.78974250  0.71761100  1
  H  135  1  0.16779450  0.78717050  0.67328900  1
  H  137  1  0.07873250  0.68573550  0.67592000  1
  H  138  1  0.08679600  0.68165300  0.72042100  1
  H  139  1  0.08955000  0.62868900  0.69262000  1
  H  148  1  0.66057100  0.40118200  0.26017200  1
  H  152  1  0.78625900  0.30715500  0.16987100  1
  H  154  1  0.87341750  0.27110950  0.20486700  1
  H  155  1  0.92536250  0.28403650  0.17140400  1
  H  156  1  0.84519850  0.24328850  0.16352400  1
  H  158  1  0.93896200  0.35780600  0.12695100  1
  H  159  1  0.89683350  0.39640350  0.12972800  1
  H  160  1  0.85961750  0.32187950  0.11641700  1
  H  169  1  0.32224000  0.05832200  0.99028300  1
  H  173  1  0.52395500  0.02550900  0.93426100  1
  H  175  1  0.59849750  0.98734350  0.97879000  1
  H  176  1  0.62836250  0.01775850  0.93848500  1
  H  177  1  0.61602950  0.94674450  0.94889200  1
  H  179  1  0.54664850  0.90109950  0.89863100  1
  H  180  1  0.55407250  0.96904650  0.88507550  1
  H  181  1  0.48051000  0.90938600  0.89377600  1
  H  190  1  0.48231300  0.49571700  0.01074000  1
  H  194  1  0.39342400  0.35515100  0.88250100  1
  H  196  1  0.25635800  0.30971600  0.86504600  1
  H  197  1  0.25474650  0.33114450  0.82293100  1
  H  198  1  0.26763500  0.38124300  0.85677600  1
  H  200  1  0.35334600  0.39894000  0.79411100  1
  H  201  1  0.42354450  0.42445250  0.81613900  1
  H  202  1  0.37366750  0.45399350  0.82584500  1
  H  211  1  0.98095850  0.48201650  0.05622000  1
  H  215  1  0.99109000  0.75877600  0.96859100  1
  H  216  1  0.01665300  0.78236100  0.92705800  1
  H  217  1  0.04146500  0.67915900  0.90436800  1
  H  226  1  0.72618600  0.96904400  0.49062000  1
  H  230  1  0.52323450  0.99961050  0.43474400  1
  H  232  1  0.44974850  0.03977550  0.47920300  1
  H  233  1  0.41901350  0.00771150  0.43894100  1
  H  234  1  0.43167800  0.07919300  0.44925200  1
  H  236  1  0.50002900  0.12267000  0.39892500  1
  H  237  1  0.49223700  0.05412900  0.38546400  1
  H  238  1  0.56601400  0.11409500  0.39408900  1
  H  247  1  0.56830150  0.53269050  0.51092400  1
  H  251  1  0.65610900  0.67006400  0.38328600  1
  H  253  1  0.79299800  0.71483800  0.36614600  1
  H  254  1  0.79413350  0.69232450  0.32394900  1
  H  255  1  0.78147200  0.64304300  0.35760000  1
  H  257  1  0.69518800  0.62393400  0.29478200  1
  H  258  1  0.62522400  0.59910400  0.31664700  1
  H  259  1  0.67507550  0.56966650  0.32630300  1
  H  268  1  0.07001350  0.54571350  0.55639300  1
  H  272  1  0.13425050  0.40107250  0.46278900  1
  H  274  1  0.05755050  0.26758750  0.46570100  1
  H  275  1  0.03147900  0.24373100  0.42396900  1
  H  276  1  0.99017900  0.26808500  0.45053400  1
  H  278  1  0.04684700  0.31736700  0.37913200  1
  H  279  1  0.08394100  0.39243800  0.38967900  1
  H  280  1  0.00684200  0.34709800  0.40259700  1
  H  774  1  0.91487700  0.62545000  0.96454600  1
  H  775  1  0.05840900  0.75839600  0.95322800  1
  H  777  1  0.00090200  0.70845100  0.88140600  1
  H  778  1  0.96424300  0.63346500  0.89120700  1
  N  122  1  0.34973850  0.62840750  0.71435100  1
  N  125  1  0.27601500  0.65587900  0.75154400  1
  N  128  1  0.23768750  0.67665550  0.70179100  1
  N  130  1  0.17023650  0.71186150  0.69205700  1
  N  140  1  0.31110100  0.64542700  0.66305500  1
  N  141  1  0.30789800  0.63609000  0.80276100  1
  N  143  1  0.69639750  0.39264250  0.21465700  1
  N  146  1  0.78220750  0.38196350  0.25111300  1
  N  149  1  0.82965150  0.37170950  0.20354700  1
  N  151  1  0.87997300  0.33584900  0.16975700  1
  N  161  1  0.74182950  0.38635850  0.16298800  1
  N  162  1  0.74378100  0.39266400  0.30278700  1
  N  164  1  0.32321600  0.98196300  0.97650300  1
  N  167  1  0.44648600  0.04462300  0.97764600  1
  N  170  1  0.45575350  0.96334750  0.96055300  1
  N  172  1  0.53409450  0.95096850  0.93798700  1
  N  182  1  0.31996650  0.89518450  0.96060100  1
  N  183  1  0.44055450  0.13078050  0.99402200  1
  N  185  1  0.43262300  0.50649500  0.97186700  1
  N  188  1  0.43353800  0.41378800  0.94153200  1
  N  191  1  0.37931150  0.42208950  0.89479400  1
  N  193  1  0.34432900  0.36760900  0.84459600  1
  N  203  1  0.37650300  0.51656900  0.92549900  1
  N  204  1  0.48877800  0.40252300  0.98791800  1
  N  206  1  0.03839600  0.54812000  0.02434400  1
  N  209  1  0.94006700  0.56090000  0.00827200  1
  N  212  1  0.99929450  0.63622250  0.97078100  1
  N  218  1  0.10599750  0.62324750  0.99025800  1
  N  219  1  0.87631700  0.48288100  0.04552300  1
  N  221  1  0.72487800  0.04478300  0.47670000  1
  N  224  1  0.60162900  0.98222900  0.47818700  1
  N  227  1  0.59206550  0.06284150  0.46091500  1
  N  229  1  0.51331350  0.07438150  0.43835000  1
  N  239  1  0.72779000  0.13087500  0.46065600  1
  N  240  1  0.60808450  0.89679450  0.49472300  1
  N  242  1  0.61753450  0.52086850  0.47205300  1
  N  245  1  0.61649750  0.61292150  0.44207900  1
  N  248  1  0.67020850  0.60335850  0.39535800  1
  N  250  1  0.70477650  0.65656050  0.34539300  1
  N  260  1  0.67314900  0.50953300  0.42571800  1
  N  261  1  0.56174600  0.62536500  0.48847500  1
  N  263  1  0.01187150  0.47893150  0.52428100  1
  N  266  1  0.11005750  0.46637950  0.50726800  1
  N  269  1  0.04994750  0.39029650  0.46943600  1
  N  271  1  0.07456450  0.33606050  0.43089300  1
  N  281  1  0.94358350  0.40307550  0.48998300  1
  N  282  1  0.17447550  0.54505850  0.54492500  1
  N  773  1  0.97392050  0.69008650  0.93305100  1
  O  8  1  0.20933000  0.79988300  0.97393400  1
  O  15  1  0.36705400  0.55713800  0.86437000  1
  O  17  1  0.36611000  0.77871800  0.91223300  1
  O  18  1  0.30629100  0.61953700  0.96672400  1
  O  38  1  0.83919150  0.22611350  0.47359200  1
  O  45  1  0.68239200  0.46738700  0.36442900  1
  O  47  1  0.68159000  0.24634000  0.41237400  1
  O  48  1  0.74268300  0.40685000  0.46694800  1
  O  68  1  0.43801450  0.22820550  0.97339000  1
  O  75  1  0.81494450  0.45199350  0.10813300  1
  O  77  1  0.60577750  0.23983250  0.04100700  1
  O  78  1  0.70661800  0.41501400  0.00107700  1
  O  98  1  0.61129700  0.79910500  0.47429800  1
  O  105  1  0.23628250  0.57511750  0.60766600  1
  O  107  1  0.44408850  0.78843450  0.54197700  1
  O  108  1  0.34381950  0.61433750  0.50072000  1
