# generated using pymatgen
data_H15C22N2O
_symmetry_space_group_name_H-M   'P 1'
_cell_length_a   21.16260000
_cell_length_b   37.37270000
_cell_length_c   37.37270000
_cell_angle_alpha   90.00000000
_cell_angle_beta   90.00000000
_cell_angle_gamma   90.00000000
_symmetry_Int_Tables_number   1
_chemical_formula_structural   H15C22N2O
_chemical_formula_sum   'H240 C352 N32 O16'
_cell_volume   29558.19927257
_cell_formula_units_Z   16
loop_
 _symmetry_equiv_pos_site_id
 _symmetry_equiv_pos_as_xyz
  1  'x, y, z'
loop_
 _atom_site_type_symbol
 _atom_site_label
 _atom_site_symmetry_multiplicity
 _atom_site_fract_x
 _atom_site_fract_y
 _atom_site_fract_z
 _atom_site_occupancy
  C  1  1  0.38053700  0.26882700  0.60939900  1
  C  2  1  0.34309600  0.23777700  0.61442900  1
  C  3  1  0.37017200  0.20420300  0.62204700  1
  C  4  1  0.43586200  0.20178700  0.62830800  1
  C  5  1  0.47463800  0.23242600  0.62390700  1
  C  6  1  0.44666000  0.26522800  0.61402800  1
  C  9  1  0.35295100  0.30222600  0.59854100  1
  C  10  1  0.29684300  0.30315100  0.57776300  1
  C  11  1  0.26686200  0.33557300  0.56895700  1
  C  12  1  0.29522300  0.36835100  0.57900800  1
  C  13  1  0.35176900  0.36828200  0.59919300  1
  C  14  1  0.37962600  0.33546900  0.60900800  1
  C  21  1  0.53852800  0.23167200  0.63116300  1
  C  22  1  0.33508600  0.17401300  0.61468300  1
  C  23  1  0.20312600  0.33563000  0.56185100  1
  C  24  1  0.38205600  0.40026000  0.60530200  1
  C  29  1  0.86917000  0.30178900  0.96506700  1
  C  30  1  0.83190800  0.33316300  0.96216700  1
  C  31  1  0.85864800  0.36653700  0.95329900  1
  C  32  1  0.92339000  0.36853600  0.94438100  1
  C  33  1  0.96182400  0.33758600  0.94695800  1
  C  34  1  0.93455800  0.30486700  0.95761800  1
  C  37  1  0.84218300  0.26833500  0.97602400  1
  C  38  1  0.78992100  0.26701900  0.99977900  1
  C  39  1  0.76033100  0.23445400  0.00879200  1
  C  40  1  0.78610800  0.20195600  0.99589700  1
  C  41  1  0.83783100  0.20255000  0.97195700  1
  C  42  1  0.86521900  0.23547300  0.96222000  1
  C  49  1  0.02460000  0.33828400  0.93738600  1
  C  50  1  0.82429300  0.39700900  0.96033100  1
  C  51  1  0.69749600  0.23468200  0.01854800  1
  C  52  1  0.86546000  0.17068100  0.96258900  1
  C  57  1  0.62637800  0.46779000  0.76963900  1
  C  58  1  0.58902400  0.46368000  0.73842900  1
  C  59  1  0.61618800  0.45653600  0.70477300  1
  C  60  1  0.68186000  0.45025900  0.70227700  1
  C  61  1  0.72064600  0.45404500  0.73300800  1
  C  62  1  0.69252600  0.46337500  0.76593800  1
  C  65  1  0.59861700  0.47678600  0.80353200  1
  C  66  1  0.54212100  0.49712400  0.80558700  1
  C  67  1  0.51227600  0.50413800  0.83849600  1
  C  68  1  0.54096000  0.49253000  0.87067500  1
  C  69  1  0.59757400  0.47244900  0.86947100  1
  C  70  1  0.62539500  0.46455000  0.83614200  1
  C  77  1  0.78428200  0.44589200  0.73252900  1
  C  78  1  0.58042000  0.46254000  0.67458000  1
  C  79  1  0.44851200  0.51110000  0.83909000  1
  C  80  1  0.62866000  0.46525900  0.90099100  1
  C  85  1  0.12922800  0.10752400  0.80138400  1
  C  86  1  0.09108000  0.11111200  0.83235000  1
  C  87  1  0.11712100  0.11935700  0.86605900  1
  C  88  1  0.18223500  0.12722400  0.86872700  1
  C  89  1  0.22159800  0.12403000  0.83819400  1
  C  90  1  0.19485300  0.11385800  0.80517500  1
  C  93  1  0.10284500  0.09677100  0.76769900  1
  C  94  1  0.04932500  0.07395600  0.76609300  1
  C  95  1  0.01993900  0.06538900  0.73337700  1
  C  96  1  0.04704300  0.07769900  0.70101600  1
  C  97  1  0.10074500  0.10022100  0.70183000  1
  C  98  1  0.12781900  0.10969600  0.73492100  1
  C  105  1  0.28477900  0.13276500  0.83943000  1
  C  106  1  0.08165700  0.11206000  0.89610500  1
  C  107  1  0.95689000  0.05617400  0.73327200  1
  C  108  1  0.12925600  0.10918800  0.67006300  1
  C  113  1  0.87251500  0.77086900  0.10093200  1
  C  114  1  0.82939400  0.74255700  0.10738800  1
  C  115  1  0.84957400  0.70672600  0.10892800  1
  C  116  1  0.91471400  0.69868300  0.10603400  1
  C  117  1  0.95961900  0.72649200  0.10087600  1
  C  118  1  0.93727000  0.76196700  0.09758600  1
  C  121  1  0.85142100  0.80705900  0.09631400  1
  C  122  1  0.79175900  0.81429700  0.08074600  1
  C  123  1  0.76932200  0.84948300  0.07680300  1
  C  124  1  0.80778000  0.87867300  0.08696800  1
  C  125  1  0.86839200  0.87227800  0.10163500  1
  C  126  1  0.88918100  0.83674900  0.10657900  1
  C  133  1  0.02467500  0.72084400  0.10128200  1
  C  134  1  0.80661600  0.67923000  0.10639700  1
  C  135  1  0.70620800  0.85499000  0.07102600  1
  C  136  1  0.90914100  0.90072100  0.10567100  1
  C  141  1  0.34369500  0.80531700  0.46973800  1
  C  142  1  0.29941700  0.83289300  0.46273300  1
  C  143  1  0.31885000  0.86729000  0.45178100  1
  C  144  1  0.38364400  0.87411300  0.44542100  1
  C  145  1  0.42907300  0.84716600  0.45250100  1
  C  146  1  0.40842700  0.81362200  0.46522400  1
  C  149  1  0.32499200  0.77054000  0.48211300  1
  C  150  1  0.26988900  0.76557100  0.50310500  1
  C  151  1  0.24948200  0.73119100  0.51355900  1
  C  152  1  0.28692900  0.70101100  0.50500700  1
  C  153  1  0.34218700  0.70531100  0.48421900  1
  C  154  1  0.36014800  0.73962700  0.47260700  1
  C  161  1  0.49292600  0.85160500  0.44615100  1
  C  162  1  0.27866500  0.89577300  0.45679800  1
  C  163  1  0.18643200  0.72592200  0.52082100  1
  C  164  1  0.37982000  0.67615900  0.47775200  1
  C  169  1  0.11282900  0.97187400  0.27168500  1
  C  170  1  0.06735800  0.96680600  0.24422700  1
  C  171  1  0.08495500  0.96483200  0.20799300  1
  C  172  1  0.14982800  0.96513700  0.19865300  1
  C  173  1  0.19662800  0.96939400  0.22547600  1
  C  174  1  0.17716100  0.97356000  0.26135000  1
  C  177  1  0.09465600  0.97695000  0.30837700  1
  C  178  1  0.03602600  0.99306900  0.31709200  1
  C  179  1  0.01634300  0.99721200  0.35277600  1
  C  180  1  0.05670700  0.98674900  0.38101600  1
  C  181  1  0.11653600  0.97176700  0.37318100  1
  C  182  1  0.13441900  0.96654700  0.33719800  1
  C  189  1  0.26079900  0.96860200  0.21796900  1
  C  190  1  0.04026800  0.97016200  0.18173600  1
  C  191  1  0.95378400  0.00332000  0.35980800  1
  C  192  1  0.15977100  0.96844100  0.40055400  1
  C  197  1  0.61519300  0.59995300  0.30404000  1
  C  198  1  0.57365300  0.60804500  0.33262700  1
  C  199  1  0.59641000  0.61475300  0.36743600  1
  C  200  1  0.66233800  0.61563300  0.37367300  1
  C  201  1  0.70520600  0.60765700  0.34554900  1
  C  202  1  0.68071600  0.59929500  0.31145200  1
  C  205  1  0.59237000  0.59161000  0.26896300  1
  C  206  1  0.53423400  0.57349300  0.26404500  1
  C  207  1  0.51027700  0.56637300  0.22960800  1
  C  208  1  0.54622400  0.57584200  0.19913600  1
  C  209  1  0.60461800  0.59373200  0.20340800  1
  C  210  1  0.62677500  0.60174600  0.23800700  1
  C  217  1  0.77017400  0.61075500  0.34903000  1
  C  218  1  0.55610300  0.61244400  0.39629400  1
  C  219  1  0.44692000  0.55953900  0.22561500  1
  C  220  1  0.64192000  0.59943400  0.17391000  1
  C  225  1  0.62863600  0.19303900  0.63161500  1
  C  226  1  0.64649800  0.15913500  0.61880900  1
  C  227  1  0.69694600  0.14057300  0.63461200  1
  C  228  1  0.73016000  0.15505700  0.66421700  1
  C  229  1  0.71598900  0.19085100  0.67467900  1
  C  230  1  0.66484400  0.20910500  0.65892400  1
  C  232  1  0.77612000  0.13503300  0.68430100  1
  C  233  1  0.77991800  0.09709500  0.68342300  1
  C  234  1  0.82667200  0.07856400  0.70261900  1
  C  235  1  0.86921200  0.09751600  0.72446100  1
  C  236  1  0.86389100  0.13490200  0.72729200  1
  C  237  1  0.81775300  0.15369700  0.70773000  1
  C  242  1  0.81724600  0.19343800  0.70905400  1
  C  243  1  0.74923200  0.20788300  0.70532400  1
  C  251  1  0.11653000  0.37541300  0.93848900  1
  C  252  1  0.13422700  0.40939500  0.95116900  1
  C  253  1  0.18504200  0.42776100  0.93554800  1
  C  254  1  0.21896500  0.41291600  0.90639600  1
  C  255  1  0.20493200  0.37704000  0.89615600  1
  C  256  1  0.15339200  0.35895100  0.91170700  1
  C  258  1  0.26605400  0.43256400  0.88682600  1
  C  259  1  0.26997600  0.47050100  0.88725600  1
  C  260  1  0.31793300  0.48868500  0.86871100  1
  C  261  1  0.36185400  0.46932100  0.84813700  1
  C  262  1  0.35656500  0.43190600  0.84574500  1
  C  263  1  0.30894900  0.41347800  0.86450400  1
  C  268  1  0.30785700  0.37372400  0.86349800  1
  C  269  1  0.23939900  0.35966600  0.86613700  1
  C  277  1  0.87417800  0.44209000  0.69393100  1
  C  278  1  0.89240800  0.45324700  0.65951300  1
  C  279  1  0.94208800  0.43600800  0.64159900  1
  C  280  1  0.97412400  0.40660400  0.65729200  1
  C  281  1  0.95943200  0.39768300  0.69342000  1
  C  282  1  0.90900600  0.41484000  0.71104000  1
  C  284  1  0.02029300  0.38568800  0.63835000  1
  C  285  1  0.02479800  0.38518200  0.60043800  1
  C  286  1  0.07264200  0.36589200  0.58294900  1
  C  287  1  0.11600600  0.34566900  0.60308400  1
  C  288  1  0.10972000  0.34390300  0.64047200  1
  C  289  1  0.06200100  0.36327300  0.65817200  1
  C  294  1  0.06010900  0.36304000  0.69793100  1
  C  295  1  0.99164500  0.36732900  0.71156400  1
  C  303  1  0.37492400  0.13222200  0.87802800  1
  C  304  1  0.39204400  0.11911600  0.91193700  1
  C  305  1  0.44165500  0.13502200  0.93111500  1
  C  306  1  0.47480000  0.16492900  0.91720900  1
  C  307  1  0.46168100  0.17554200  0.88132200  1
  C  308  1  0.41139000  0.15967200  0.86241200  1
  C  310  1  0.51956200  0.18520000  0.93791600  1
  C  311  1  0.52212400  0.18401700  0.97589300  1
  C  312  1  0.56763000  0.20350600  0.99511600  1
  C  313  1  0.61000500  0.22593500  0.97677300  1
  C  314  1  0.60604000  0.22899400  0.93936100  1
  C  315  1  0.56119700  0.20912900  0.91990000  1
  C  320  1  0.56229300  0.21060500  0.88017100  1
  C  321  1  0.49499000  0.20645200  0.86482300  1
  C  329  1  0.10321000  0.67989900  0.12126600  1
  C  330  1  0.11813800  0.64397200  0.11428600  1
  C  331  1  0.16992600  0.62790200  0.13127200  1
  C  332  1  0.20633000  0.64684600  0.15689900  1
  C  333  1  0.19256500  0.68377600  0.16253400  1
  C  334  1  0.14055900  0.69976700  0.14526300  1
  C  336  1  0.25657300  0.63039500  0.17684400  1
  C  337  1  0.26220200  0.59276400  0.18101900  1
  C  338  1  0.31369800  0.57755200  0.19914200  1
  C  339  1  0.35992500  0.59980400  0.21451700  1
  C  340  1  0.35315500  0.63716800  0.21255400  1
  C  341  1  0.30176700  0.65262300  0.19428800  1
  C  346  1  0.29820000  0.69223700  0.19097300  1
  C  347  1  0.22874600  0.70486100  0.18933300  1
  C  355  1  0.57813200  0.89253600  0.44095500  1
  C  356  1  0.59754200  0.92624500  0.45354700  1
  C  357  1  0.65537200  0.94092600  0.44244300  1
  C  358  1  0.69493300  0.92254700  0.41795700  1
  C  359  1  0.67649000  0.88767900  0.40662500  1
  C  360  1  0.61807100  0.87342800  0.41752100  1
  C  362  1  0.75268100  0.93741600  0.40436700  1
  C  363  1  0.76427700  0.97479300  0.40313900  1
  C  364  1  0.82025000  0.98849100  0.38833900  1
  C  365  1  0.86541000  0.96499200  0.37378600  1
  C  366  1  0.85414300  0.92795700  0.37397000  1
  C  367  1  0.79825200  0.91403000  0.38884000  1
  C  372  1  0.78741200  0.87471200  0.38862000  1
  C  373  1  0.71687200  0.86673100  0.38163100  1
  C  381  1  0.33719400  0.94237400  0.18052500  1
  C  382  1  0.35427000  0.95034000  0.14512400  1
  C  383  1  0.40993900  0.93603500  0.13070800  1
  C  384  1  0.44825100  0.91223400  0.15080100  1
  C  385  1  0.43144900  0.90535200  0.18711400  1
  C  386  1  0.37559200  0.91996500  0.20149400  1
  C  388  1  0.50379600  0.89572000  0.13622500  1
  C  389  1  0.51405200  0.89202200  0.09887700  1
  C  390  1  0.57000200  0.87698700  0.08550700  1
  C  391  1  0.61658400  0.86461700  0.10935600  1
  C  392  1  0.60578500  0.86622000  0.14642500  1
  C  393  1  0.54969600  0.88120900  0.16004300  1
  C  398  1  0.54078400  0.88375400  0.19945200  1
  C  399  1  0.47007300  0.88060700  0.20930300  1
  C  407  1  0.85463900  0.61689100  0.39073900  1
  C  408  1  0.87106900  0.60612600  0.42554800  1
  C  409  1  0.92318000  0.62156800  0.44290800  1
  C  410  1  0.95928600  0.64887900  0.42628400  1
  C  411  1  0.94543600  0.65758100  0.38998200  1
  C  412  1  0.89270800  0.64223000  0.37292700  1
  C  414  1  0.00778600  0.66856800  0.44466400  1
  C  415  1  0.01135900  0.67074600  0.48255800  1
  C  416  1  0.05905100  0.69057600  0.49959400  1
  C  417  1  0.10312100  0.70972300  0.47895300  1
  C  418  1  0.09894700  0.70908900  0.44143900  1
  C  419  1  0.05169900  0.68897800  0.42420200  1
  C  424  1  0.05033700  0.68759200  0.38446200  1
  C  425  1  0.98150900  0.68591400  0.37088800  1
  C  433  1  0.32945300  0.13185300  0.56635100  1
  C  434  1  0.26459800  0.13083700  0.55823300  1
  C  435  1  0.24222800  0.10795900  0.53138500  1
  C  436  1  0.28368700  0.08541800  0.51172900  1
  C  437  1  0.34965700  0.08802300  0.51879000  1
  C  438  1  0.37166500  0.11089100  0.54617600  1
  C  440  1  0.26173000  0.06067800  0.48502200  1
  C  441  1  0.19780500  0.04978700  0.48327700  1
  C  442  1  0.17702900  0.02498600  0.45793500  1
  C  443  1  0.21919700  0.01067800  0.43259300  1
  C  444  1  0.28282800  0.02154600  0.43331600  1
  C  445  1  0.30492900  0.04503600  0.46028500  1
  C  450  1  0.37182100  0.05701400  0.45990200  1
  C  451  1  0.39616900  0.06672500  0.49777200  1
  C  459  1  0.82123600  0.44218600  0.00590600  1
  C  460  1  0.75588400  0.44692200  0.01092500  1
  C  461  1  0.73370400  0.47189200  0.03587300  1
  C  462  1  0.77582600  0.49295800  0.05663500  1
  C  463  1  0.84188300  0.48698900  0.05250900  1
  C  464  1  0.86381600  0.46204000  0.02696600  1
  C  466  1  0.75404800  0.51815300  0.08292800  1
  C  467  1  0.69171000  0.53181300  0.08254100  1
  C  468  1  0.66971800  0.55471400  0.10933600  1
  C  469  1  0.70917200  0.56414900  0.13817500  1
  C  470  1  0.77182300  0.55150100  0.13872800  1
  C  471  1  0.79545200  0.53007900  0.11052200  1
  C  476  1  0.86088400  0.51578000  0.11264300  1
  C  477  1  0.88813000  0.50663400  0.07525100  1
  C  485  1  0.57301500  0.50825000  0.62950400  1
  C  486  1  0.50735700  0.51122300  0.62441800  1
  C  487  1  0.48318700  0.53611300  0.59996400  1
  C  488  1  0.52358400  0.55871700  0.57972500  1
  C  489  1  0.58987800  0.55633900  0.58582500  1
  C  490  1  0.61383000  0.53098300  0.61033500  1
  C  492  1  0.49974000  0.58526100  0.55540200  1
  C  493  1  0.43767300  0.58361800  0.54141900  1
  C  494  1  0.41358800  0.61066200  0.51948600  1
  C  495  1  0.45068500  0.64087900  0.51132200  1
  C  496  1  0.51306000  0.64269000  0.52422400  1
  C  497  1  0.53879400  0.61443700  0.54474700  1
  C  502  1  0.60378200  0.61786500  0.55945100  1
  C  503  1  0.63415600  0.58089900  0.56693200  1
  C  511  1  0.07753800  0.06640900  0.94111600  1
  C  512  1  0.01270700  0.05832300  0.94284800  1
  C  513  1  0.99071400  0.03264100  0.96714100  1
  C  514  1  0.03250000  0.01418800  0.99048100  1
  C  515  1  0.09837200  0.02139600  0.98747100  1
  C  516  1  0.12003700  0.04760400  0.96314900  1
  C  518  1  0.01102800  0.98788000  0.01579100  1
  C  519  1  0.94702800  0.98572900  0.02652600  1
  C  520  1  0.92628400  0.95988100  0.05083900  1
  C  521  1  0.96875600  0.93445400  0.06467100  1
  C  522  1  0.03261700  0.93584300  0.05432600  1
  C  523  1  0.05458600  0.96334400  0.03143000  1
  C  528  1  0.12168500  0.96344800  0.01977200  1
  C  529  1  0.14504300  0.00139900  0.00962200  1
  C  537  1  0.43840400  0.43861400  0.56687300  1
  C  538  1  0.50223900  0.44433200  0.55839900  1
  C  539  1  0.51929300  0.47143200  0.53422900  1
  C  540  1  0.47278600  0.49211500  0.51624300  1
  C  541  1  0.40798900  0.48500900  0.52360100  1
  C  542  1  0.39179300  0.45927900  0.54954200  1
  C  544  1  0.48843200  0.51745700  0.48880300  1
  C  545  1  0.54841000  0.53414600  0.48706400  1
  C  546  1  0.56327600  0.55815300  0.45955400  1
  C  547  1  0.51849900  0.56600300  0.43285000  1
  C  548  1  0.45848800  0.54997600  0.43416100  1
  C  549  1  0.44227500  0.52696400  0.46269000  1
  C  554  1  0.37920600  0.50950000  0.46307300  1
  C  555  1  0.35691300  0.50174000  0.50174300  1
  C  563  1  0.92939200  0.13031700  0.99542100  1
  C  564  1  0.99289700  0.12880600  0.00599800  1
  C  565  1  0.01239700  0.10361800  0.03146700  1
  C  566  1  0.96864200  0.08027600  0.04849300  1
  C  567  1  0.90396600  0.08268200  0.03834500  1
  C  568  1  0.88564000  0.10640300  0.01086100  1
  C  570  1  0.98681600  0.05665700  0.07700600  1
  C  571  1  0.05095300  0.04774900  0.08329700  1
  C  572  1  0.06901300  0.02727400  0.11283200  1
  C  573  1  0.02321400  0.01430200  0.13664800  1
  C  574  1  0.95891200  0.02128200  0.13037100  1
  C  575  1  0.94032000  0.04168400  0.10023800  1
  C  580  1  0.87251000  0.05092500  0.09614600  1
  C  581  1  0.85358500  0.06288900  0.05792700  1
  C  589  1  0.18786700  0.07463800  0.62865300  1
  C  590  1  0.25065800  0.06308600  0.62512900  1
  C  591  1  0.26710100  0.03862700  0.59821700  1
  C  592  1  0.22067600  0.02337100  0.57536600  1
  C  593  1  0.15674300  0.03440600  0.57975900  1
  C  594  1  0.14157300  0.06081300  0.60528900  1
  C  596  1  0.23519200  0.99537300  0.55034800  1
  C  597  1  0.29749900  0.98930400  0.53785500  1
  C  598  1  0.31145000  0.96080700  0.51488300  1
  C  599  1  0.26312300  0.93783600  0.50326300  1
  C  600  1  0.20064900  0.94359200  0.51461000  1
  C  601  1  0.18607300  0.97279700  0.53717800  1
  C  606  1  0.12056500  0.97676000  0.55085300  1
  C  607  1  0.10428700  0.01595000  0.56053200  1
  C  615  1  0.68684800  0.50314700  0.93924900  1
  C  616  1  0.75068700  0.51236800  0.94346600  1
  C  617  1  0.76847800  0.53739400  0.96959700  1
  C  618  1  0.72259000  0.55548000  0.99065500  1
  C  619  1  0.65768000  0.54720900  0.98508200  1
  C  620  1  0.64084200  0.52027800  0.96050800  1
  C  622  1  0.73886900  0.58384000  0.01481500  1
  C  623  1  0.79995800  0.58674900  0.02996200  1
  C  624  1  0.81576800  0.61530400  0.05246600  1
  C  625  1  0.77083400  0.64190400  0.06031700  1
  C  626  1  0.70959600  0.63937800  0.04603000  1
  C  627  1  0.69256100  0.60978100  0.02456900  1
  C  632  1  0.62825400  0.60814400  0.00872000  1
  C  633  1  0.60683400  0.56911500  0.00197600  1
  H  7  1  0.29517000  0.23895900  0.61107100  1
  H  16  1  0.41942700  0.33618600  0.62453800  1
  H  17  1  0.45960300  0.16731400  0.66287900  1
  H  18  1  0.26616200  0.40361800  0.54617600  1
  H  19  1  0.47566000  0.28666900  0.60942300  1
  H  20  1  0.27526200  0.27996300  0.56991800  1
  H  25  1  0.35837300  0.42018900  0.61678400  1
  H  26  1  0.55614100  0.25065100  0.64687000  1
  H  27  1  0.29124000  0.17144500  0.62386700  1
  H  28  1  0.18653900  0.34725300  0.53986900  1
  H  35  1  0.78454200  0.33220700  0.96759600  1
  H  44  1  0.90191800  0.23519300  0.94438100  1
  H  45  1  0.94414100  0.40256100  0.90875300  1
  H  46  1  0.76778800  0.16429000  0.02831700  1
  H  47  1  0.96347700  0.28308900  0.96058500  1
  H  48  1  0.77039600  0.29012100  0.00943400  1
  H  53  1  0.83958000  0.15176000  0.95087500  1
  H  54  1  0.03963000  0.32080300  0.91926600  1
  H  55  1  0.78052000  0.39964200  0.95108100  1
  H  56  1  0.68298200  0.21978600  0.03892300  1
  H  63  1  0.54105800  0.46682400  0.73969700  1
  H  72  1  0.66541400  0.44918800  0.83600200  1
  H  73  1  0.70472800  0.41564000  0.66763600  1
  H  74  1  0.51181600  0.52356600  0.90753000  1
  H  75  1  0.72140000  0.46730900  0.78756900  1
  H  76  1  0.52029400  0.50598100  0.78283500  1
  H  81  1  0.60524400  0.45370800  0.92097600  1
  H  82  1  0.80153100  0.43096700  0.75223800  1
  H  83  1  0.53740000  0.45216900  0.67216100  1
  H  84  1  0.43192500  0.53269000  0.85142500  1
  H  91  1  0.04349900  0.10646200  0.83089400  1
  H  100  1  0.16559300  0.12679900  0.73482700  1
  H  101  1  0.20336800  0.16240900  0.90312900  1
  H  102  1  0.02579000  0.04554100  0.66358800  1
  H  103  1  0.22431500  0.11039900  0.78371000  1
  H  104  1  0.02879900  0.06468200  0.78907200  1
  H  109  1  0.10440100  0.12179200  0.65129300  1
  H  110  1  0.30116100  0.15020200  0.82165500  1
  H  111  1  0.03759800  0.12104600  0.89824600  1
  H  112  1  0.94215900  0.03566100  0.71863300  1
  H  119  1  0.78210000  0.74763900  0.10996900  1
  H  128  1  0.93261600  0.83278300  0.11793400  1
  H  129  1  0.93346200  0.65533900  0.13037700  1
  H  130  1  0.78260000  0.91861600  0.05877000  1
  H  131  1  0.96925600  0.78174400  0.09201500  1
  H  132  1  0.76303200  0.79378700  0.07269000  1
  H  137  1  0.89471000  0.92226000  0.11903100  1
  H  138  1  0.05436700  0.74121900  0.09775000  1
  H  139  1  0.80645800  0.65981200  0.12464200  1
  H  140  1  0.69087400  0.86617400  0.04853800  1
  H  147  1  0.25220500  0.82858500  0.46671700  1
  H  156  1  0.39898500  0.74169300  0.45641000  1
  H  157  1  0.40007200  0.90808200  0.40905500  1
  H  158  1  0.27847100  0.66342200  0.53866800  1
  H  159  1  0.44191900  0.79500700  0.47194800  1
  H  160  1  0.24190200  0.78693500  0.50955600  1
  H  165  1  0.36270900  0.65583900  0.46350400  1
  H  166  1  0.51777600  0.83038600  0.43840000  1
  H  167  1  0.26674300  0.91162700  0.43654500  1
  H  168  1  0.17298000  0.71233200  0.54232300  1
  H  175  1  0.02023700  0.96577300  0.25021900  1
  H  184  1  0.17728300  0.95488300  0.33231200  1
  H  185  1  0.16077400  0.94038100  0.15465000  1
  H  186  1  0.03161200  0.01473600  0.42126700  1
  H  187  1  0.21104700  0.97850500  0.28024700  1
  H  188  1  0.00593000  0.00139700  0.29735300  1
  H  193  1  0.14676700  0.95495500  0.42233200  1
  H  194  1  0.29204800  0.97877200  0.23512800  1
  H  195  1  0.01772900  0.94970000  0.17053700  1
  H  196  1  0.93867900  0.02682900  0.36874500  1
  H  203  1  0.52580900  0.60806100  0.32863300  1
  H  212  1  0.66840800  0.61550200  0.24036900  1
  H  213  1  0.68739600  0.64825600  0.40975600  1
  H  214  1  0.53081300  0.54481400  0.15998700  1
  H  215  1  0.71172900  0.59222000  0.29162200  1
  H  216  1  0.50741400  0.56630900  0.28567900  1
  H  221  1  0.62476600  0.61349800  0.15345800  1
  H  222  1  0.79520200  0.61838400  0.32782500  1
  H  223  1  0.55886200  0.63047000  0.41584600  1
  H  224  1  0.43240400  0.53850200  0.21163900  1
  H  231  1  0.65161600  0.23328800  0.66925800  1
  H  238  1  0.74994000  0.08220900  0.66808100  1
  H  239  1  0.83151400  0.05156700  0.69906300  1
  H  240  1  0.89707200  0.14898500  0.74152700  1
  H  241  1  0.62007200  0.14652800  0.59960800  1
  H  244  1  0.84616200  0.20354200  0.68700300  1
  H  245  1  0.83726400  0.20352600  0.73409400  1
  H  246  1  0.75184900  0.23692100  0.70185900  1
  H  247  1  0.72265200  0.20239000  0.72981000  1
  H  250  1  0.70691800  0.11567100  0.62493900  1
  H  257  1  0.14054100  0.33455100  0.90173500  1
  H  264  1  0.23914800  0.48563500  0.90180200  1
  H  265  1  0.32271000  0.51571500  0.87201300  1
  H  266  1  0.39047600  0.41758200  0.83233100  1
  H  267  1  0.10740100  0.42223000  0.97004100  1
  H  270  1  0.33539700  0.36364500  0.88611100  1
  H  271  1  0.32905900  0.36335000  0.83888700  1
  H  272  1  0.24127000  0.33062100  0.86971700  1
  H  273  1  0.21421500  0.36524800  0.84120700  1
  H  276  1  0.19490800  0.45273600  0.94506900  1
  H  283  1  0.89523000  0.40561700  0.73557100  1
  H  290  1  0.99470700  0.39970600  0.58481400  1
  H  291  1  0.07809400  0.36867800  0.55590000  1
  H  292  1  0.14308100  0.33057000  0.65527200  1
  H  293  1  0.86673600  0.47225100  0.64612100  1
  H  296  1  0.08897200  0.38521900  0.70778900  1
  H  297  1  0.07946000  0.33816600  0.70882700  1
  H  298  1  0.99324600  0.37138800  0.74055000  1
  H  299  1  0.96499000  0.34282700  0.70628200  1
  H  302  1  0.95250000  0.44458100  0.61635300  1
  H  309  1  0.39888700  0.17000700  0.83810600  1
  H  316  1  0.49218400  0.16821800  0.99031500  1
  H  317  1  0.57191900  0.19962500  0.02209900  1
  H  318  1  0.63927600  0.24366700  0.92576800  1
  H  319  1  0.36545000  0.09972900  0.92414400  1
  H  322  1  0.59208600  0.18879300  0.87038000  1
  H  323  1  0.58219400  0.23581700  0.87042900  1
  H  324  1  0.49889800  0.20307300  0.83582000  1
  H  325  1  0.46768100  0.23074400  0.87000800  1
  H  328  1  0.45093600  0.12523300  0.95605500  1
  H  335  1  0.12739000  0.72527500  0.15196900  1
  H  342  1  0.22961200  0.57561200  0.17050500  1
  H  343  1  0.31828800  0.55032400  0.19993400  1
  H  344  1  0.38779700  0.65339100  0.22282100  1
  H  345  1  0.08993600  0.62885700  0.09792400  1
  H  348  1  0.32271100  0.70023500  0.16648900  1
  H  349  1  0.32124900  0.70555400  0.21354900  1
  H  350  1  0.22826000  0.73342000  0.18287300  1
  H  351  1  0.20658000  0.70136100  0.21553100  1
  H  354  1  0.17912100  0.60180500  0.12516000  1
  H  361  1  0.60381400  0.84947700  0.40707700  1
  H  368  1  0.73186400  0.99276900  0.41242100  1
  H  369  1  0.82796700  0.01549800  0.38857500  1
  H  370  1  0.88757000  0.91082200  0.36389900  1
  H  371  1  0.56894200  0.94079300  0.47019800  1
  H  374  1  0.80103500  0.86392900  0.41469500  1
  H  375  1  0.81571000  0.86121100  0.36815900  1
  H  376  1  0.70923200  0.83793200  0.38473200  1
  H  377  1  0.70467000  0.87405200  0.35416500  1
  H  380  1  0.66767700  0.96536700  0.45247700  1
  H  387  1  0.36124000  0.91297600  0.22672600  1
  H  394  1  0.48129200  0.90033300  0.08064300  1
  H  395  1  0.57711200  0.87608000  0.05845900  1
  H  396  1  0.64015200  0.85768100  0.16379200  1
  H  397  1  0.32567200  0.96589400  0.12941000  1
  H  400  1  0.55902100  0.90958300  0.20851500  1
  H  401  1  0.56670900  0.86268500  0.21352100  1
  H  402  1  0.46473400  0.88632000  0.23786200  1
  H  403  1  0.45389400  0.85323700  0.20451300  1
  H  406  1  0.42113400  0.94303800  0.10508700  1
  H  413  1  0.87965000  0.65163800  0.34832100  1
  H  420  1  0.97961200  0.65784000  0.49854800  1
  H  421  1  0.06245300  0.69010700  0.52688700  1
  H  422  1  0.13247700  0.72200000  0.42638600  1
  H  423  1  0.84292200  0.58863200  0.43937600  1
  H  426  1  0.07574500  0.66365200  0.37574700  1
  H  427  1  0.07346800  0.71087100  0.37246100  1
  H  428  1  0.98255400  0.68083900  0.34205100  1
  H  429  1  0.95823400  0.71165500  0.37533500  1
  H  432  1  0.93251200  0.61335600  0.46841100  1
  H  439  1  0.41924300  0.11300600  0.55086100  1
  H  446  1  0.16467200  0.05983400  0.50018000  1
  H  447  1  0.12985600  0.01924900  0.45679800  1
  H  448  1  0.31272900  0.01302400  0.41353100  1
  H  449  1  0.23355300  0.14764900  0.57079800  1
  H  452  1  0.37507500  0.08057300  0.44264900  1
  H  453  1  0.40259600  0.03630600  0.44874700  1
  H  454  1  0.44037900  0.08156700  0.49459300  1
  H  455  1  0.40692900  0.04227800  0.51255000  1
  H  458  1  0.19510300  0.10926000  0.52585700  1
  H  465  1  0.91135700  0.45744300  0.02448400  1
  H  472  1  0.66014500  0.52438200  0.06347000  1
  H  473  1  0.62279200  0.56135800  0.10945700  1
  H  474  1  0.79951600  0.55658800  0.16062300  1
  H  475  1  0.72393700  0.43127400  0.99762800  1
  H  478  1  0.86014400  0.49163600  0.12916300  1
  H  479  1  0.89235600  0.53517400  0.12541900  1
  H  480  1  0.93125000  0.49094600  0.07910500  1
  H  481  1  0.90135800  0.53131500  0.06154600  1
  H  484  1  0.68598800  0.47294600  0.03954100  1
  H  491  1  0.66146600  0.52986500  0.61514900  1
  H  498  1  0.40783600  0.56336300  0.54790700  1
  H  499  1  0.36678400  0.60973900  0.51264600  1
  H  500  1  0.53889800  0.66548000  0.52003700  1
  H  501  1  0.47653800  0.49665100  0.63964500  1
  H  504  1  0.60128600  0.63317800  0.58434300  1
  H  505  1  0.63427600  0.63242400  0.54082700  1
  H  506  1  0.67724600  0.58518300  0.58252900  1
  H  507  1  0.64790200  0.56854800  0.54162500  1
  H  510  1  0.43521900  0.53838200  0.59875500  1
  H  517  1  0.16755400  0.05226500  0.96065700  1
  H  524  1  0.91375200  0.00247100  0.01642900  1
  H  525  1  0.87897400  0.95817400  0.05612900  1
  H  526  1  0.06277000  0.91611200  0.06266600  1
  H  527  1  0.98143600  0.06983500  0.92543700  1
  H  530  1  0.12596600  0.94582000  0.99652600  1
  H  531  1  0.15236200  0.95298900  0.04086600  1
  H  532  1  0.18992500  0.99853100  0.99541500  1
  H  533  1  0.15428500  0.01671300  0.03395100  1
  H  536  1  0.94368600  0.02683100  0.96612700  1
  H  543  1  0.34515600  0.45320200  0.55331500  1
  H  550  1  0.58264000  0.52879700  0.50548300  1
  H  551  1  0.60827000  0.56811500  0.45792500  1
  H  552  1  0.42727300  0.55421900  0.41365200  1
  H  553  1  0.53636100  0.42770500  0.56842800  1
  H  556  1  0.38259700  0.48435600  0.44825700  1
  H  557  1  0.34369100  0.52624200  0.44992400  1
  H  558  1  0.31538100  0.48434000  0.50013700  1
  H  559  1  0.34195000  0.52657100  0.51445800  1
  H  562  1  0.56603600  0.47355100  0.52781300  1
  H  569  1  0.83848600  0.10977500  0.00576100  1
  H  576  1  0.08630800  0.05657000  0.06706800  1
  H  577  1  0.11616500  0.02294000  0.11738200  1
  H  578  1  0.92606000  0.01283300  0.14862500  1
  H  579  1  0.02421200  0.14797400  0.99764300  1
  H  582  1  0.86208200  0.07252300  0.11499600  1
  H  583  1  0.84299600  0.02799900  0.10339000  1
  H  584  1  0.81137900  0.07961700  0.06057900  1
  H  585  1  0.83991500  0.03965900  0.04206300  1
  H  588  1  0.05817300  0.10550000  0.03974400  1
  H  595  1  0.09505700  0.06672100  0.60983500  1
  H  602  1  0.33425300  0.00503400  0.54571300  1
  H  603  1  0.35755500  0.95605000  0.50798800  1
  H  604  1  0.16635300  0.92555400  0.50766100  1
  H  605  1  0.28387800  0.07035000  0.64368800  1
  H  608  1  0.11590600  0.96004500  0.57474000  1
  H  609  1  0.08618500  0.96737400  0.53111700  1
  H  610  1  0.06138000  0.01543600  0.57684300  1
  H  611  1  0.09309800  0.03086200  0.53626300  1
  H  614  1  0.31257300  0.02956500  0.59832100  1
  H  621  1  0.59403800  0.51597200  0.95527700  1
  H  628  1  0.83434400  0.56846000  0.02452100  1
  H  629  1  0.86138200  0.61761600  0.06129100  1
  H  630  1  0.67798000  0.65963100  0.05050400  1
  H  631  1  0.78402800  0.50255600  0.92621000  1
  H  634  1  0.62902000  0.62268900  0.98332900  1
  H  635  1  0.59356600  0.62103000  0.02617800  1
  H  636  1  0.56469800  0.57005200  0.98503900  1
  H  637  1  0.59296000  0.55678600  0.02722400  1
  H  640  1  0.81502600  0.54450900  0.97045600  1
  N  248  1  0.92419100  0.08494900  0.73440400  1
  N  249  1  0.57128100  0.20395500  0.62305000  1
  N  274  1  0.41714900  0.48186200  0.83877200  1
  N  275  1  0.05935900  0.36453300  0.94745300  1
  N  300  1  0.17152900  0.33606600  0.59101400  1
  N  301  1  0.81729500  0.45201900  0.70441700  1
  N  326  1  0.66460600  0.23583600  0.98985000  1
  N  327  1  0.31809700  0.12330100  0.86650100  1
  N  352  1  0.41524600  0.58870500  0.22571100  1
  N  353  1  0.04659000  0.69102000  0.11263700  1
  N  378  1  0.92160600  0.97454700  0.36274300  1
  N  379  1  0.51986000  0.88227100  0.44844200  1
  N  404  1  0.67366900  0.85491500  0.09985300  1
  N  405  1  0.28007300  0.95036100  0.19112100  1
  N  430  1  0.15578300  0.72314500  0.49145200  1
  N  431  1  0.79700400  0.60920100  0.37974500  1
  N  456  1  0.19417700  0.99653700  0.40359900  1
  N  457  1  0.35389800  0.15672200  0.58701900  1
  N  482  1  0.68236800  0.57451000  0.16826900  1
  N  483  1  0.84456000  0.41574400  0.98670900  1
  N  508  1  0.42173000  0.67064100  0.50189500  1
  N  509  1  0.59790800  0.48947200  0.65575100  1
  N  534  1  0.94436800  0.90488400  0.07802100  1
  N  535  1  0.10167800  0.08582400  0.91510600  1
  N  560  1  0.53889400  0.58026800  0.40295100  1
  N  561  1  0.42075500  0.40748200  0.57991200  1
  N  586  1  0.04534400  0.00052900  0.16622900  1
  N  587  1  0.90848800  0.16167000  0.98487800  1
  N  612  1  0.28089100  0.90752500  0.48893900  1
  N  613  1  0.16942000  0.08538400  0.66050600  1
  N  638  1  0.79165600  0.67205700  0.07394500  1
  N  639  1  0.66796100  0.49031700  0.90826600  1
  O  8  1  0.46119100  0.16919900  0.63665400  1
  O  15  1  0.26507100  0.40007800  0.57225100  1
  O  36  1  0.94849300  0.40087500  0.93489300  1
  O  43  1  0.75682000  0.17016300  0.00342800  1
  O  64  1  0.70697800  0.44184300  0.66965100  1
  O  71  1  0.51109400  0.49767800  0.90278900  1
  O  92  1  0.20666100  0.13622500  0.90136300  1
  O  99  1  0.01764000  0.07085700  0.66910500  1
  O  120  1  0.93298200  0.66355100  0.10536200  1
  O  127  1  0.78535600  0.91295400  0.08442400  1
  O  148  1  0.40195700  0.90770200  0.43533600  1
  O  155  1  0.26640400  0.66736100  0.51357000  1
  O  176  1  0.16665200  0.96503000  0.16326500  1
  O  183  1  0.03682400  0.98915700  0.41582400  1
  O  204  1  0.68355000  0.62211700  0.40761800  1
  O  211  1  0.52249200  0.57009200  0.16556700  1
