# generated using pymatgen
data_Gd2Zn19H54C54N72(Cl2O9)4
_symmetry_space_group_name_H-M   'P 1'
_cell_length_a   18.23563145
_cell_length_b   18.29834000
_cell_length_c   24.20561000
_cell_angle_alpha   90.03296000
_cell_angle_beta   90.01631696
_cell_angle_gamma   119.79082466
_symmetry_Int_Tables_number   1
_chemical_formula_structural   Gd2Zn19H54C54N72(Cl2O9)4
_chemical_formula_sum   'Gd4 Zn38 H108 C108 N144 Cl16 O72'
_cell_volume   7009.55656279
_cell_formula_units_Z   2
loop_
 _symmetry_equiv_pos_site_id
 _symmetry_equiv_pos_as_xyz
  1  'x, y, z'
loop_
 _atom_site_type_symbol
 _atom_site_label
 _atom_site_symmetry_multiplicity
 _atom_site_fract_x
 _atom_site_fract_y
 _atom_site_fract_z
 _atom_site_occupancy
  Gd  Gd1  1  0.99997000  0.99976000  0.12705000  1.0
  Gd  Gd2  1  0.99983000  0.99982000  0.62706000  1.0
  Gd  Gd3  1  0.99999000  0.99978000  0.35935000  1.0
  Gd  Gd4  1  0.99977000  0.99951000  0.85937000  1.0
  Zn  Zn1  1  0.99973000  0.21071000  0.14108000  1.0
  Zn  Zn2  1  0.00010000  0.33383000  0.91017000  1.0
  Zn  Zn3  1  0.78887000  0.78869000  0.14102000  1.0
  Zn  Zn4  1  0.66515000  0.66512000  0.91006000  1.0
  Zn  Zn5  1  0.21075000  0.99941000  0.14101000  1.0
  Zn  Zn6  1  0.33453000  0.00083000  0.90997000  1.0
  Zn  Zn7  1  0.00016000  0.78887000  0.64104000  1.0
  Zn  Zn8  1  0.99955000  0.66442000  0.41002000  1.0
  Zn  Zn9  1  0.21079000  0.21087000  0.64100000  1.0
  Zn  Zn10  1  0.33445000  0.33458000  0.41014000  1.0
  Zn  Zn11  1  0.78912000  0.00045000  0.64102000  1.0
  Zn  Zn12  1  0.66542000  0.99924000  0.41001000  1.0
  Zn  Zn13  1  0.21119000  0.99976000  0.35928000  1.0
  Zn  Zn14  1  0.33472000  0.00086000  0.59011000  1.0
  Zn  Zn15  1  0.78879000  0.78861000  0.35894000  1.0
  Zn  Zn16  1  0.66539000  0.66527000  0.58990000  1.0
  Zn  Zn17  1  0.00001000  0.21129000  0.35742000  1.0
  Zn  Zn18  1  0.99992000  0.33390000  0.58980000  1.0
  Zn  Zn19  1  0.78861000  0.99982000  0.85917000  1.0
  Zn  Zn20  1  0.66526000  0.99913000  0.09008000  1.0
  Zn  Zn21  1  0.21099000  0.21119000  0.85749000  1.0
  Zn  Zn22  1  0.33451000  0.33457000  0.08981000  1.0
  Zn  Zn23  1  0.00008000  0.78854000  0.85870000  1.0
  Zn  Zn24  1  0.00000000  0.66620000  0.08994000  1.0
  Zn  Zn25  1  0.00006000  0.49968000  0.00080000  1.0
  Zn  Zn26  1  0.49836000  0.49839000  0.99898000  1.0
  Zn  Zn27  1  0.49832000  0.99823000  0.00095000  1.0
  Zn  Zn28  1  0.99980000  0.49943000  0.49901000  1.0
  Zn  Zn29  1  0.49848000  0.49848000  0.50103000  1.0
  Zn  Zn30  1  0.50087000  0.00060000  0.50082000  1.0
  Zn  Zn31  1  0.33204000  0.66631000  0.88197000  1.0
  Zn  Zn32  1  0.66631000  0.33245000  0.38197000  1.0
  Zn  Zn33  1  0.66578000  0.33267000  0.61808000  1.0
  Zn  Zn34  1  0.33439000  0.66729000  0.11810000  1.0
  Zn  Zn35  1  0.66817000  0.33422000  0.11807000  1.0
  Zn  Zn36  1  0.33139000  0.66539000  0.61811000  1.0
  Zn  Zn37  1  0.33436000  0.66724000  0.38195000  1.0
  Zn  Zn38  1  0.66561000  0.33246000  0.88193000  1.0
  H  H1  1  0.17261000  0.65645000  0.93611000  1.0
  H  H2  1  0.23182000  0.47776000  0.81905000  1.0
  H  H3  1  0.16643000  0.39008000  0.85327000  1.0
  H  H4  1  0.34083000  0.51479000  0.93271000  1.0
  H  H5  1  0.52005000  0.76212000  0.82374000  1.0
  H  H6  1  0.60998000  0.77670000  0.85356000  1.0
  H  H7  1  0.48272000  0.82486000  0.93519000  1.0
  H  H8  1  0.23712000  0.75784000  0.82395000  1.0
  H  H9  1  0.22260000  0.83399000  0.85228000  1.0
  H  H10  1  0.82651000  0.34243000  0.43545000  1.0
  H  H11  1  0.76621000  0.52146000  0.31921000  1.0
  H  H12  1  0.83260000  0.60929000  0.35329000  1.0
  H  H13  1  0.65813000  0.48398000  0.43369000  1.0
  H  H14  1  0.47870000  0.23946000  0.32263000  1.0
  H  H15  1  0.38919000  0.22293000  0.35360000  1.0
  H  H16  1  0.51589000  0.17354000  0.43467000  1.0
  H  H17  1  0.76227000  0.24168000  0.32411000  1.0
  H  H18  1  0.77663000  0.16539000  0.35221000  1.0
  H  H19  1  0.65784000  0.17379000  0.56553000  1.0
  H  H20  1  0.47915000  0.24162000  0.67632000  1.0
  H  H21  1  0.38910000  0.16638000  0.64731000  1.0
  H  H22  1  0.51570000  0.34259000  0.56501000  1.0
  H  H23  1  0.75489000  0.52235000  0.68073000  1.0
  H  H24  1  0.77673000  0.60971000  0.64594000  1.0
  H  H25  1  0.82547000  0.48453000  0.56624000  1.0
  H  H26  1  0.75896000  0.23842000  0.67633000  1.0
  H  H27  1  0.83356000  0.22299000  0.64611000  1.0
  H  H28  1  0.34216000  0.82564000  0.06542000  1.0
  H  H29  1  0.52116000  0.75791000  0.17597000  1.0
  H  H30  1  0.61139000  0.83344000  0.14712000  1.0
  H  H31  1  0.48396000  0.65670000  0.06417000  1.0
  H  H32  1  0.24636000  0.47725000  0.18112000  1.0
  H  H33  1  0.22373000  0.39022000  0.14571000  1.0
  H  H34  1  0.17405000  0.51449000  0.06721000  1.0
  H  H35  1  0.24215000  0.76200000  0.17622000  1.0
  H  H36  1  0.16712000  0.77707000  0.14635000  1.0
  H  H37  1  0.82776000  0.34307000  0.06520000  1.0
  H  H38  1  0.76876000  0.52327000  0.18107000  1.0
  H  H39  1  0.83309000  0.61015000  0.14588000  1.0
  H  H40  1  0.65868000  0.48488000  0.06631000  1.0
  H  H41  1  0.47947000  0.24195000  0.17813000  1.0
  H  H42  1  0.39036000  0.22337000  0.14586000  1.0
  H  H43  1  0.51574000  0.17471000  0.06588000  1.0
  H  H44  1  0.76342000  0.24262000  0.17540000  1.0
  H  H45  1  0.77703000  0.16592000  0.14705000  1.0
  H  H46  1  0.17233000  0.65650000  0.56416000  1.0
  H  H47  1  0.23020000  0.47691000  0.68114000  1.0
  H  H48  1  0.16650000  0.38981000  0.64584000  1.0
  H  H49  1  0.34067000  0.51423000  0.56746000  1.0
  H  H50  1  0.52052000  0.75874000  0.67801000  1.0
  H  H51  1  0.60948000  0.77659000  0.64595000  1.0
  H  H52  1  0.48385000  0.82472000  0.56607000  1.0
  H  H53  1  0.23609000  0.75716000  0.67536000  1.0
  H  H54  1  0.22274000  0.83395000  0.64694000  1.0
  H  H55  1  0.34231000  0.82544000  0.43552000  1.0
  H  H56  1  0.52057000  0.75734000  0.32421000  1.0
  H  H57  1  0.61107000  0.83387000  0.35225000  1.0
  H  H58  1  0.48378000  0.65657000  0.43593000  1.0
  H  H59  1  0.24595000  0.47752000  0.31879000  1.0
  H  H60  1  0.22383000  0.39027000  0.35359000  1.0
  H  H61  1  0.17389000  0.51460000  0.43270000  1.0
  H  H62  1  0.24049000  0.76055000  0.32301000  1.0
  H  H63  1  0.16684000  0.77683000  0.35340000  1.0
  H  H64  1  0.65794000  0.17365000  0.93487000  1.0
  H  H65  1  0.47946000  0.24190000  0.82411000  1.0
  H  H66  1  0.38918000  0.16546000  0.85214000  1.0
  H  H67  1  0.51600000  0.34265000  0.93535000  1.0
  H  H68  1  0.75495000  0.52137000  0.81932000  1.0
  H  H69  1  0.77637000  0.60923000  0.85339000  1.0
  H  H70  1  0.82549000  0.48408000  0.93356000  1.0
  H  H71  1  0.76199000  0.24052000  0.82204000  1.0
  H  H72  1  0.83376000  0.22300000  0.85356000  1.0
  H  H73  1  0.00153000  0.21182000  0.01009000  1.0
  H  H74  1  0.01079000  0.45509000  0.12697000  1.0
  H  H75  1  0.02203000  0.38144000  0.16299000  1.0
  H  H76  1  0.78887000  0.78724000  0.01005000  1.0
  H  H77  1  0.55477000  0.54433000  0.12644000  1.0
  H  H78  1  0.63947000  0.61751000  0.16278000  1.0
  H  H79  1  0.21309000  0.00379000  0.01061000  1.0
  H  H80  1  0.45468000  0.00910000  0.12724000  1.0
  H  H81  1  0.37759000  0.01364000  0.16338000  1.0
  H  H82  1  0.99838000  0.78755000  0.51006000  1.0
  H  H83  1  0.98927000  0.54402000  0.62635000  1.0
  H  H84  1  0.97813000  0.61751000  0.66273000  1.0
  H  H85  1  0.21053000  0.21188000  0.51002000  1.0
  H  H86  1  0.44442000  0.45461000  0.62705000  1.0
  H  H87  1  0.35939000  0.38147000  0.66311000  1.0
  H  H88  1  0.78668000  0.99558000  0.51063000  1.0
  H  H89  1  0.54495000  0.99028000  0.62723000  1.0
  H  H90  1  0.62153000  0.98476000  0.66335000  1.0
  H  H91  1  0.21151000  0.99974000  0.48963000  1.0
  H  H92  1  0.45241000  0.99762000  0.37158000  1.0
  H  H93  1  0.37000000  0.99701000  0.33393000  1.0
  H  H94  1  0.78859000  0.78723000  0.49014000  1.0
  H  H95  1  0.55490000  0.54439000  0.37328000  1.0
  H  H96  1  0.63972000  0.61731000  0.33701000  1.0
  H  H97  1  0.00111000  0.21179000  0.48982000  1.0
  H  H98  1  0.01016000  0.45463000  0.37274000  1.0
  H  H99  1  0.02259000  0.38164000  0.33670000  1.0
  H  H100  1  0.78933000  0.00265000  0.98949000  1.0
  H  H101  1  0.55319000  0.00818000  0.87264000  1.0
  H  H102  1  0.63371000  0.01170000  0.83639000  1.0
  H  H103  1  0.21081000  0.21190000  0.98989000  1.0
  H  H104  1  0.44411000  0.45436000  0.87283000  1.0
  H  H105  1  0.35897000  0.38158000  0.83664000  1.0
  H  H106  1  0.99891000  0.78775000  0.98994000  1.0
  H  H107  1  0.98968000  0.54426000  0.87327000  1.0
  H  H108  1  0.97761000  0.61729000  0.83699000  1.0
  C  C1  1  0.15297000  0.20170000  0.10879000  1.0
  C  C2  1  0.17567000  0.49539000  0.88550000  1.0
  C  C3  1  0.16245000  0.59477000  0.92485000  1.0
  C  C4  1  0.79923000  0.95130000  0.10658000  1.0
  C  C5  1  0.50369000  0.68003000  0.88512000  1.0
  C  C6  1  0.40290000  0.56617000  0.92206000  1.0
  C  C7  1  0.04829000  0.84680000  0.10744000  1.0
  C  C8  1  0.31807000  0.82347000  0.88582000  1.0
  C  C9  1  0.43122000  0.83561000  0.92428000  1.0
  C  C10  1  0.84694000  0.79813000  0.60879000  1.0
  C  C11  1  0.82320000  0.50368000  0.38514000  1.0
  C  C12  1  0.83636000  0.40399000  0.42413000  1.0
  C  C13  1  0.20052000  0.04842000  0.60662000  1.0
  C  C14  1  0.49536000  0.31931000  0.38537000  1.0
  C  C15  1  0.59601000  0.43281000  0.42285000  1.0
  C  C16  1  0.95170000  0.15295000  0.60744000  1.0
  C  C17  1  0.68114000  0.17581000  0.38575000  1.0
  C  C18  1  0.56747000  0.16293000  0.42380000  1.0
  C  C19  1  0.20003000  0.15176000  0.39224000  1.0
  C  C20  1  0.49504000  0.17648000  0.61425000  1.0
  C  C21  1  0.59571000  0.16335000  0.57625000  1.0
  C  C22  1  0.95136000  0.79873000  0.39094000  1.0
  C  C23  1  0.68024000  0.50398000  0.61464000  1.0
  C  C24  1  0.56737000  0.40422000  0.57601000  1.0
  C  C25  1  0.84959000  0.04863000  0.39381000  1.0
  C  C26  1  0.82374000  0.31958000  0.61441000  1.0
  C  C27  1  0.83637000  0.43318000  0.57702000  1.0
  C  C28  1  0.79968000  0.84797000  0.89265000  1.0
  C  C29  1  0.50531000  0.82332000  0.11415000  1.0
  C  C30  1  0.40430000  0.83609000  0.07623000  1.0
  C  C31  1  0.04916000  0.20092000  0.89009000  1.0
  C  C32  1  0.31977000  0.49587000  0.11436000  1.0
  C  C33  1  0.43227000  0.59519000  0.07525000  1.0
  C  C34  1  0.15078000  0.95146000  0.89371000  1.0
  C  C35  1  0.17645000  0.68011000  0.11474000  1.0
  C  C36  1  0.16337000  0.56603000  0.07780000  1.0
  C  C37  1  0.84783000  0.79873000  0.89106000  1.0
  C  C38  1  0.82423000  0.50457000  0.11466000  1.0
  C  C39  1  0.83765000  0.40478000  0.07603000  1.0
  C  C40  1  0.19870000  0.04821000  0.89383000  1.0
  C  C41  1  0.49637000  0.31959000  0.11432000  1.0
  C  C42  1  0.59671000  0.43335000  0.07702000  1.0
  C  C43  1  0.95176000  0.15184000  0.89224000  1.0
  C  C44  1  0.68106000  0.17631000  0.11426000  1.0
  C  C45  1  0.56708000  0.16373000  0.07684000  1.0
  C  C46  1  0.15160000  0.20074000  0.39006000  1.0
  C  C47  1  0.17537000  0.49526000  0.61434000  1.0
  C  C48  1  0.16222000  0.59482000  0.57525000  1.0
  C  C49  1  0.80123000  0.95191000  0.39371000  1.0
  C  C50  1  0.50337000  0.68013000  0.61460000  1.0
  C  C51  1  0.40274000  0.56589000  0.57789000  1.0
  C  C52  1  0.04868000  0.84802000  0.39264000  1.0
  C  C53  1  0.31849000  0.82327000  0.61424000  1.0
  C  C54  1  0.43248000  0.83572000  0.57695000  1.0
  C  C55  1  0.79799000  0.84686000  0.60762000  1.0
  C  C56  1  0.50517000  0.82349000  0.38583000  1.0
  C  C57  1  0.40443000  0.83623000  0.42428000  1.0
  C  C58  1  0.04910000  0.20174000  0.60888000  1.0
  C  C59  1  0.31966000  0.49578000  0.38541000  1.0
  C  C60  1  0.43214000  0.59505000  0.42473000  1.0
  C  C61  1  0.15207000  0.95144000  0.60667000  1.0
  C  C62  1  0.17649000  0.68028000  0.38519000  1.0
  C  C63  1  0.16333000  0.56619000  0.42206000  1.0
  C  C64  1  0.20184000  0.15289000  0.10762000  1.0
  C  C65  1  0.49508000  0.17597000  0.88572000  1.0
  C  C66  1  0.59575000  0.16276000  0.92376000  1.0
  C  C67  1  0.95087000  0.79804000  0.10885000  1.0
  C  C68  1  0.68012000  0.50379000  0.88514000  1.0
  C  C69  1  0.56748000  0.40421000  0.92406000  1.0
  C  C70  1  0.84775000  0.04832000  0.10665000  1.0
  C  C71  1  0.82343000  0.31895000  0.88547000  1.0
  C  C72  1  0.83631000  0.43267000  0.92280000  1.0
  C  C73  1  0.04771000  0.27163000  0.24972000  1.0
  C  C74  1  0.73758000  0.78672000  0.24997000  1.0
  C  C75  1  0.21678000  0.95057000  0.25018000  1.0
  C  C76  1  0.95219000  0.72827000  0.74992000  1.0
  C  C77  1  0.26273000  0.21344000  0.74973000  1.0
  C  C78  1  0.78389000  0.04975000  0.75020000  1.0
  C  C79  1  0.26703000  0.04869000  0.25004000  1.0
  C  C80  1  0.77668000  0.72786000  0.25001000  1.0
  C  C81  1  0.94973000  0.21302000  0.24966000  1.0
  C  C82  1  0.73293000  0.95169000  0.75004000  1.0
  C  C83  1  0.22379000  0.27252000  0.74978000  1.0
  C  C84  1  0.05007000  0.78718000  0.74989000  1.0
  C  C85  1  0.00024000  0.26625000  0.02623000  1.0
  C  C86  1  0.99842000  0.35646000  0.08218000  1.0
  C  C87  1  0.73326000  0.73283000  0.02611000  1.0
  C  C88  1  0.64131000  0.64270000  0.08188000  1.0
  C  C89  1  0.26698000  0.00094000  0.02654000  1.0
  C  C90  1  0.35554000  0.99508000  0.08218000  1.0
  C  C91  1  0.99965000  0.73304000  0.52605000  1.0
  C  C92  1  0.00142000  0.64268000  0.58185000  1.0
  C  C93  1  0.26608000  0.26627000  0.52620000  1.0
  C  C94  1  0.35787000  0.35629000  0.58226000  1.0
  C  C95  1  0.73318000  0.99918000  0.52650000  1.0
  C  C96  1  0.64420000  0.00426000  0.58212000  1.0
  C  C97  1  0.26684000  0.99961000  0.47371000  1.0
  C  C98  1  0.35881000  0.00001000  0.41804000  1.0
  C  C99  1  0.73306000  0.73289000  0.47387000  1.0
  C  C100  1  0.64133000  0.64279000  0.41784000  1.0
  C  C101  1  0.00001000  0.26613000  0.47337000  1.0
  C  C102  1  0.99835000  0.35622000  0.41734000  1.0
  C  C103  1  0.73335000  0.00133000  0.97346000  1.0
  C  C104  1  0.63904000  0.99578000  0.91776000  1.0
  C  C105  1  0.26616000  0.26611000  0.97342000  1.0
  C  C106  1  0.35765000  0.35597000  0.91731000  1.0
  C  C107  1  0.00004000  0.73325000  0.97374000  1.0
  C  C108  1  0.00152000  0.64282000  0.91781000  1.0
  N  N1  1  0.09790000  0.52275000  0.94115000  1.0
  N  N2  1  0.21461000  0.58187000  0.89000000  1.0
  N  N3  1  0.10529000  0.45896000  0.91565000  1.0
  N  N4  1  0.20846000  0.45335000  0.85694000  1.0
  N  N5  1  0.47476000  0.57170000  0.93768000  1.0
  N  N6  1  0.41670000  0.63294000  0.88889000  1.0
  N  N7  1  0.53936000  0.64371000  0.91387000  1.0
  N  N8  1  0.54682000  0.75575000  0.85882000  1.0
  N  N9  1  0.42499000  0.90122000  0.93999000  1.0
  N  N10  1  0.36512000  0.78342000  0.89018000  1.0
  N  N11  1  0.35358000  0.89463000  0.91507000  1.0
  N  N12  1  0.24259000  0.79126000  0.85868000  1.0
  N  N13  1  0.90133000  0.47594000  0.44016000  1.0
  N  N14  1  0.78396000  0.41713000  0.38961000  1.0
  N  N15  1  0.89401000  0.53985000  0.41492000  1.0
  N  N16  1  0.79049000  0.54605000  0.35693000  1.0
  N  N17  1  0.52410000  0.42697000  0.43869000  1.0
  N  N18  1  0.58227000  0.36644000  0.38919000  1.0
  N  N19  1  0.45964000  0.35522000  0.41445000  1.0
  N  N20  1  0.45241000  0.24371000  0.35859000  1.0
  N  N21  1  0.57377000  0.09730000  0.43935000  1.0
  N  N22  1  0.63379000  0.21555000  0.39008000  1.0
  N  N23  1  0.64563000  0.10453000  0.41480000  1.0
  N  N24  1  0.75664000  0.20810000  0.35875000  1.0
  N  N25  1  0.52391000  0.09828000  0.56021000  1.0
  N  N26  1  0.58199000  0.21579000  0.61029000  1.0
  N  N27  1  0.45934000  0.10561000  0.58475000  1.0
  N  N28  1  0.45182000  0.20900000  0.64124000  1.0
  N  N29  1  0.57451000  0.47613000  0.55955000  1.0
  N  N30  1  0.63280000  0.41741000  0.61057000  1.0
  N  N31  1  0.64582000  0.54013000  0.58455000  1.0
  N  N32  1  0.75527000  0.54631000  0.64278000  1.0
  N  N33  1  0.90253000  0.42733000  0.56131000  1.0
  N  N34  1  0.78382000  0.36676000  0.61056000  1.0
  N  N35  1  0.89539000  0.35552000  0.58546000  1.0
  N  N36  1  0.79126000  0.24397000  0.64099000  1.0
  N  N37  1  0.47599000  0.90125000  0.06025000  1.0
  N  N38  1  0.41834000  0.78392000  0.11025000  1.0
  N  N39  1  0.54077000  0.89418000  0.08470000  1.0
  N  N40  1  0.54862000  0.79095000  0.14109000  1.0
  N  N41  1  0.42476000  0.52310000  0.05872000  1.0
  N  N42  1  0.36725000  0.58238000  0.11008000  1.0
  N  N43  1  0.35370000  0.45941000  0.08407000  1.0
  N  N44  1  0.24506000  0.45362000  0.14286000  1.0
  N  N45  1  0.09723000  0.57193000  0.06208000  1.0
  N  N46  1  0.21623000  0.63278000  0.11106000  1.0
  N  N47  1  0.10465000  0.64409000  0.08589000  1.0
  N  N48  1  0.20929000  0.75599000  0.14105000  1.0
  N  N49  1  0.90191000  0.47671000  0.05934000  1.0
  N  N50  1  0.78553000  0.41799000  0.11072000  1.0
  N  N51  1  0.89442000  0.54072000  0.08436000  1.0
  N  N52  1  0.79125000  0.54675000  0.14285000  1.0
  N  N53  1  0.52456000  0.42695000  0.06105000  1.0
  N  N54  1  0.58327000  0.36710000  0.11063000  1.0
  N  N55  1  0.46033000  0.35503000  0.08515000  1.0
  N  N56  1  0.45369000  0.24403000  0.14136000  1.0
  N  N57  1  0.57249000  0.09737000  0.06154000  1.0
  N  N58  1  0.63410000  0.21653000  0.11010000  1.0
  N  N59  1  0.64460000  0.10452000  0.08565000  1.0
  N  N60  1  0.75697000  0.20865000  0.14078000  1.0
  N  N61  1  0.09801000  0.52285000  0.55849000  1.0
  N  N62  1  0.21411000  0.58178000  0.61028000  1.0
  N  N63  1  0.10534000  0.45898000  0.58384000  1.0
  N  N64  1  0.20825000  0.45325000  0.64284000  1.0
  N  N65  1  0.47475000  0.57206000  0.56189000  1.0
  N  N66  1  0.41643000  0.63260000  0.61112000  1.0
  N  N67  1  0.53922000  0.64434000  0.58557000  1.0
  N  N68  1  0.54619000  0.75597000  0.64136000  1.0
  N  N69  1  0.42721000  0.90216000  0.56175000  1.0
  N  N70  1  0.36537000  0.78297000  0.61008000  1.0
  N  N71  1  0.35510000  0.89511000  0.58576000  1.0
  N  N72  1  0.24256000  0.79103000  0.64070000  1.0
  N  N73  1  0.47623000  0.90189000  0.43983000  1.0
  N  N74  1  0.41825000  0.78385000  0.39022000  1.0
  N  N75  1  0.54075000  0.89475000  0.41498000  1.0
  N  N76  1  0.54847000  0.79122000  0.35879000  1.0
  N  N77  1  0.42467000  0.52298000  0.44113000  1.0
  N  N78  1  0.36714000  0.58230000  0.38983000  1.0
  N  N79  1  0.35362000  0.45931000  0.41564000  1.0
  N  N80  1  0.24495000  0.45360000  0.35687000  1.0
  N  N81  1  0.09708000  0.57197000  0.43760000  1.0
  N  N82  1  0.21631000  0.63304000  0.38900000  1.0
  N  N83  1  0.10461000  0.64414000  0.41384000  1.0
  N  N84  1  0.20937000  0.75615000  0.35872000  1.0
  N  N85  1  0.52390000  0.09700000  0.93921000  1.0
  N  N86  1  0.58200000  0.21551000  0.89007000  1.0
  N  N87  1  0.45946000  0.10463000  0.91471000  1.0
  N  N88  1  0.45174000  0.20827000  0.85876000  1.0
  N  N89  1  0.57455000  0.47617000  0.94031000  1.0
  N  N90  1  0.63274000  0.41722000  0.88939000  1.0
  N  N91  1  0.64566000  0.54005000  0.91510000  1.0
  N  N92  1  0.75514000  0.54593000  0.85704000  1.0
  N  N93  1  0.90251000  0.42684000  0.93846000  1.0
  N  N94  1  0.78353000  0.36609000  0.88939000  1.0
  N  N95  1  0.89516000  0.35492000  0.91431000  1.0
  N  N96  1  0.79076000  0.24321000  0.85854000  1.0
  N  N97  1  0.99983000  0.28264000  0.08095000  1.0
  N  N98  1  0.99893000  0.32495000  0.99534000  1.0
  N  N99  1  0.99791000  0.38435000  0.03086000  1.0
  N  N100  1  0.99351000  0.39319000  0.13070000  1.0
  N  N101  1  0.71648000  0.71649000  0.08083000  1.0
  N  N102  1  0.67338000  0.67415000  0.99514000  1.0
  N  N103  1  0.61299000  0.61474000  0.03052000  1.0
  N  N104  1  0.59955000  0.60607000  0.13034000  1.0
  N  N105  1  0.28200000  0.99730000  0.08120000  1.0
  N  N106  1  0.32637000  0.00079000  0.99554000  1.0
  N  N107  1  0.38463000  0.99712000  0.03091000  1.0
  N  N108  1  0.39171000  0.98823000  0.13051000  1.0
  N  N109  1  0.00010000  0.71660000  0.58077000  1.0
  N  N110  1  0.00083000  0.67428000  0.49507000  1.0
  N  N111  1  0.00182000  0.61480000  0.53046000  1.0
  N  N112  1  0.00646000  0.60588000  0.63028000  1.0
  N  N113  1  0.28280000  0.28257000  0.58094000  1.0
  N  N114  1  0.32595000  0.32497000  0.49535000  1.0
  N  N115  1  0.38619000  0.38422000  0.53095000  1.0
  N  N116  1  0.39944000  0.39291000  0.63077000  1.0
  N  N117  1  0.71793000  0.00242000  0.58116000  1.0
  N  N118  1  0.67382000  0.99943000  0.49549000  1.0
  N  N119  1  0.61522000  0.00251000  0.53085000  1.0
  N  N120  1  0.60775000  0.01038000  0.63046000  1.0
  N  N121  1  0.28389000  0.99995000  0.41895000  1.0
  N  N122  1  0.32596000  0.99927000  0.50476000  1.0
  N  N123  1  0.38645000  0.99939000  0.46953000  1.0
  N  N124  1  0.39987000  0.00309000  0.37029000  1.0
  N  N125  1  0.71651000  0.71662000  0.41908000  1.0
  N  N126  1  0.67306000  0.67418000  0.50465000  1.0
  N  N127  1  0.61285000  0.61482000  0.46912000  1.0
  N  N128  1  0.59966000  0.60613000  0.36931000  1.0
  N  N129  1  0.99969000  0.28232000  0.41855000  1.0
  N  N130  1  0.99876000  0.32498000  0.50420000  1.0
  N  N131  1  0.99790000  0.38431000  0.46863000  1.0
  N  N132  1  0.99340000  0.39288000  0.36882000  1.0
  N  N133  1  0.71508000  0.99836000  0.91877000  1.0
  N  N134  1  0.67384000  0.00123000  0.00443000  1.0
  N  N135  1  0.61214000  0.99804000  0.96910000  1.0
  N  N136  1  0.59473000  0.98653000  0.86946000  1.0
  N  N137  1  0.28250000  0.28223000  0.91860000  1.0
  N  N138  1  0.32626000  0.32485000  0.00423000  1.0
  N  N139  1  0.38627000  0.38398000  0.96861000  1.0
  N  N140  1  0.39921000  0.39264000  0.86884000  1.0
  N  N141  1  0.00029000  0.71678000  0.91898000  1.0
  N  N142  1  0.00126000  0.67449000  0.00460000  1.0
  N  N143  1  0.00201000  0.61494000  0.96915000  1.0
  N  N144  1  0.00640000  0.60599000  0.86933000  1.0
  Cl  Cl1  1  0.00056000  0.32411000  0.81763000  1.0
  Cl  Cl2  1  0.67630000  0.67544000  0.81751000  1.0
  Cl  Cl3  1  0.32476000  0.00052000  0.81750000  1.0
  Cl  Cl4  1  0.99940000  0.67550000  0.31753000  1.0
  Cl  Cl5  1  0.32371000  0.32430000  0.31759000  1.0
  Cl  Cl6  1  0.67497000  0.99938000  0.31751000  1.0
  Cl  Cl7  1  0.32650000  0.99987000  0.68292000  1.0
  Cl  Cl8  1  0.67328000  0.67351000  0.68270000  1.0
  Cl  Cl9  1  0.00116000  0.32719000  0.68274000  1.0
  Cl  Cl10  1  0.67352000  0.00041000  0.18290000  1.0
  Cl  Cl11  1  0.32722000  0.32694000  0.18270000  1.0
  Cl  Cl12  1  0.99944000  0.67346000  0.18282000  1.0
  Cl  Cl13  1  0.00091000  0.99964000  0.24957000  1.0
  Cl  Cl14  1  0.99861000  0.99941000  0.74963000  1.0
  Cl  Cl15  1  0.00099000  0.00025000  0.01697000  1.0
  Cl  Cl16  1  0.99918000  0.00009000  0.51692000  1.0
  O  O1  1  0.07753000  0.15826000  0.12944000  1.0
  O  O2  1  0.08341000  0.29350000  0.20286000  1.0
  O  O3  1  0.18482000  0.27401000  0.08964000  1.0
  O  O4  1  0.84375000  0.91883000  0.12469000  1.0
  O  O5  1  0.72034000  0.80571000  0.20320000  1.0
  O  O6  1  0.72570000  0.91126000  0.08905000  1.0
  O  O7  1  0.08080000  0.92373000  0.12501000  1.0
  O  O8  1  0.19847000  0.91444000  0.20343000  1.0
  O  O9  1  0.08827000  0.81358000  0.08914000  1.0
  O  O10  1  0.92239000  0.84157000  0.62949000  1.0
  O  O11  1  0.91658000  0.70545000  0.70300000  1.0
  O  O12  1  0.81522000  0.72586000  0.58949000  1.0
  O  O13  1  0.15593000  0.08079000  0.62480000  1.0
  O  O14  1  0.27978000  0.19430000  0.70301000  1.0
  O  O15  1  0.27399000  0.08861000  0.58906000  1.0
  O  O16  1  0.91917000  0.07608000  0.62503000  1.0
  O  O17  1  0.80182000  0.08591000  0.70353000  1.0
  O  O18  1  0.91171000  0.18621000  0.58922000  1.0
  O  O19  1  0.15550000  0.07475000  0.37443000  1.0
  O  O20  1  0.28601000  0.08493000  0.29683000  1.0
  O  O21  1  0.27266000  0.18393000  0.41092000  1.0
  O  O22  1  0.91969000  0.84164000  0.36862000  1.0
  O  O23  1  0.78843000  0.70420000  0.29698000  1.0
  O  O24  1  0.91065000  0.72705000  0.41074000  1.0
  O  O25  1  0.92661000  0.08018000  0.37567000  1.0
  O  O26  1  0.91353000  0.19165000  0.29643000  1.0
  O  O27  1  0.81661000  0.08929000  0.41103000  1.0
  O  O28  1  0.84436000  0.92470000  0.87440000  1.0
  O  O29  1  0.71363000  0.91566000  0.79683000  1.0
  O  O30  1  0.72691000  0.81599000  0.91096000  1.0
  O  O31  1  0.08014000  0.15789000  0.86692000  1.0
  O  O32  1  0.21243000  0.29664000  0.79673000  1.0
  O  O33  1  0.09048000  0.27225000  0.91046000  1.0
  O  O34  1  0.07384000  0.91960000  0.87530000  1.0
  O  O35  1  0.08626000  0.80859000  0.79669000  1.0
  O  O36  1  0.18388000  0.91099000  0.91107000  1.0
  O  O37  1  0.92256000  0.84168000  0.86909000  1.0
  O  O38  1  0.91689000  0.70429000  0.79687000  1.0
  O  O39  1  0.81657000  0.72682000  0.91062000  1.0
  O  O40  1  0.15313000  0.07971000  0.87559000  1.0
  O  O41  1  0.27804000  0.19233000  0.79648000  1.0
  O  O42  1  0.27214000  0.08917000  0.91113000  1.0
  O  O43  1  0.91959000  0.07489000  0.87448000  1.0
  O  O44  1  0.79960000  0.08555000  0.79723000  1.0
  O  O45  1  0.91093000  0.18386000  0.91090000  1.0
  O  O46  1  0.07751000  0.15784000  0.36705000  1.0
  O  O47  1  0.08311000  0.29618000  0.29663000  1.0
  O  O48  1  0.18190000  0.27219000  0.41030000  1.0
  O  O49  1  0.84646000  0.92009000  0.37531000  1.0
  O  O50  1  0.72221000  0.80766000  0.29675000  1.0
  O  O51  1  0.72784000  0.91125000  0.41108000  1.0
  O  O52  1  0.08028000  0.92474000  0.37442000  1.0
  O  O53  1  0.20234000  0.91489000  0.29714000  1.0
  O  O54  1  0.08993000  0.81631000  0.41090000  1.0
  O  O55  1  0.84210000  0.92372000  0.62538000  1.0
  O  O56  1  0.71126000  0.91608000  0.70304000  1.0
  O  O57  1  0.72490000  0.81379000  0.58923000  1.0
  O  O58  1  0.08086000  0.15842000  0.63024000  1.0
  O  O59  1  0.21101000  0.29521000  0.70287000  1.0
  O  O60  1  0.08962000  0.27389000  0.58951000  1.0
  O  O61  1  0.07525000  0.91932000  0.62490000  1.0
  O  O62  1  0.08636000  0.80575000  0.70318000  1.0
  O  O63  1  0.18537000  0.91114000  0.58907000  1.0
  O  O64  1  0.15776000  0.07609000  0.12538000  1.0
  O  O65  1  0.28872000  0.08419000  0.20306000  1.0
  O  O66  1  0.27490000  0.18590000  0.08926000  1.0
  O  O67  1  0.91912000  0.84153000  0.12995000  1.0
  O  O68  1  0.78903000  0.70472000  0.20305000  1.0
  O  O69  1  0.91024000  0.72583000  0.08948000  1.0
  O  O70  1  0.92453000  0.08031000  0.12498000  1.0
  O  O71  1  0.91338000  0.19443000  0.20298000  1.0
  O  O72  1  0.81458000  0.08871000  0.08904000  1.0
