# generated using pymatgen
data_Cu2H8C17O8
_symmetry_space_group_name_H-M   'P 1'
_cell_length_a   18.59819000
_cell_length_b   18.59808000
_cell_length_c   18.80880000
_cell_angle_alpha   90.00000000
_cell_angle_beta   90.00000000
_cell_angle_gamma   119.97003000
_symmetry_Int_Tables_number   1
_chemical_formula_structural   Cu2H8C17O8
_chemical_formula_sum   'Cu12 H48 C102 O48'
_cell_volume   5635.87806729
_cell_formula_units_Z   6
loop_
 _symmetry_equiv_pos_site_id
 _symmetry_equiv_pos_as_xyz
  1  'x, y, z'
loop_
 _atom_site_type_symbol
 _atom_site_label
 _atom_site_symmetry_multiplicity
 _atom_site_fract_x
 _atom_site_fract_y
 _atom_site_fract_z
 _atom_site_occupancy
  Cu  Cu0  1  0.52195000  0.47805000  0.05270000  1
  Cu  Cu1  1  0.95635000  0.47816000  0.05291000  1
  Cu  Cu2  1  0.52185000  0.04365000  0.05291000  1
  Cu  Cu3  1  0.47805000  0.52195000  0.55271000  1
  Cu  Cu4  1  0.04365000  0.52185000  0.55292000  1
  Cu  Cu5  1  0.47815000  0.95636000  0.55292000  1
  Cu  Cu6  1  0.47805000  0.52195000  0.94729000  1
  Cu  Cu7  1  0.47815000  0.95636000  0.94708000  1
  Cu  Cu8  1  0.04365000  0.52185000  0.94708000  1
  Cu  Cu9  1  0.52195000  0.47805000  0.44730000  1
  Cu  Cu10  1  0.52185000  0.04365000  0.44709000  1
  Cu  Cu11  1  0.95635000  0.47816000  0.44709000  1
  H  H12  1  0.35357000  0.29315000  0.82464000  1
  H  H13  1  0.93921000  0.64665000  0.82456000  1
  H  H14  1  0.70725000  0.06072000  0.82475000  1
  H  H15  1  0.64643000  0.70686000  0.32465000  1
  H  H16  1  0.06079000  0.35335000  0.32456000  1
  H  H17  1  0.29275000  0.93929000  0.32475000  1
  H  H18  1  0.29315000  0.35357000  0.17536000  1
  H  H19  1  0.64665000  0.93921000  0.17544000  1
  H  H20  1  0.06072000  0.70725000  0.17525000  1
  H  H21  1  0.70685000  0.64644000  0.67536000  1
  H  H22  1  0.35336000  0.06079000  0.67544000  1
  H  H23  1  0.93928000  0.29276000  0.67525000  1
  H  H24  1  0.64643000  0.70686000  0.17536000  1
  H  H25  1  0.06079000  0.35335000  0.17544000  1
  H  H26  1  0.29275000  0.93929000  0.17525000  1
  H  H27  1  0.35357000  0.29315000  0.67536000  1
  H  H28  1  0.93921000  0.64665000  0.67544000  1
  H  H29  1  0.70725000  0.06072000  0.67525000  1
  H  H30  1  0.70685000  0.64644000  0.82464000  1
  H  H31  1  0.35336000  0.06079000  0.82456000  1
  H  H32  1  0.93928000  0.29276000  0.82475000  1
  H  H33  1  0.29315000  0.35357000  0.32465000  1
  H  H34  1  0.64665000  0.93921000  0.32456000  1
  H  H35  1  0.06072000  0.70725000  0.32475000  1
  H  H36  1  0.48056000  0.24023000  0.98941000  1
  H  H37  1  0.75977000  0.51945000  0.98941000  1
  H  H38  1  0.75963000  0.24037000  0.98962000  1
  H  H39  1  0.51945000  0.75977000  0.48941000  1
  H  H40  1  0.24023000  0.48056000  0.48941000  1
  H  H41  1  0.24037000  0.75964000  0.48962000  1
  H  H42  1  0.24023000  0.48056000  0.01060000  1
  H  H43  1  0.51945000  0.75977000  0.01060000  1
  H  H44  1  0.24037000  0.75964000  0.01038000  1
  H  H45  1  0.75977000  0.51945000  0.51060000  1
  H  H46  1  0.48056000  0.24023000  0.51060000  1
  H  H47  1  0.75963000  0.24037000  0.51038000  1
  H  H48  1  0.25255000  0.07912000  0.75000000  1
  H  H49  1  0.82599000  0.74751000  0.75000000  1
  H  H50  1  0.92103000  0.17377000  0.75000000  1
  H  H51  1  0.74744000  0.92088000  0.25000000  1
  H  H52  1  0.17401000  0.25249000  0.25000000  1
  H  H53  1  0.07897000  0.82624000  0.25000000  1
  H  H54  1  0.07912000  0.25256000  0.25000000  1
  H  H55  1  0.74751000  0.82599000  0.25000000  1
  H  H56  1  0.17377000  0.92104000  0.25000000  1
  H  H57  1  0.92088000  0.74745000  0.75000000  1
  H  H58  1  0.25249000  0.17401000  0.75000000  1
  H  H59  1  0.82623000  0.07897000  0.75000000  1
  C  C60  1  0.41996000  0.27510000  0.90973000  1
  C  C61  1  0.37126000  0.25065000  0.84791000  1
  C  C62  1  0.44786000  0.35827000  0.94201000  1
  C  C63  1  0.85491000  0.57998000  0.90955000  1
  C  C64  1  0.87899000  0.62882000  0.84782000  1
  C  C65  1  0.91033000  0.55200000  0.94150000  1
  C  C66  1  0.72495000  0.14508000  0.90984000  1
  C  C67  1  0.74954000  0.12093000  0.84803000  1
  C  C68  1  0.64172000  0.08977000  0.94200000  1
  C  C69  1  0.58004000  0.72491000  0.40974000  1
  C  C70  1  0.62873000  0.74936000  0.34792000  1
  C  C71  1  0.55214000  0.64174000  0.44202000  1
  C  C72  1  0.14509000  0.42002000  0.40955000  1
  C  C73  1  0.12101000  0.37119000  0.34782000  1
  C  C74  1  0.08967000  0.44800000  0.44150000  1
  C  C75  1  0.27505000  0.85492000  0.40985000  1
  C  C76  1  0.25046000  0.87908000  0.34804000  1
  C  C77  1  0.35827000  0.91023000  0.44202000  1
  C  C78  1  0.27510000  0.41996000  0.09027000  1
  C  C79  1  0.25065000  0.37127000  0.15209000  1
  C  C80  1  0.35826000  0.44786000  0.05798000  1
  C  C81  1  0.57998000  0.85492000  0.09046000  1
  C  C82  1  0.62881000  0.87900000  0.15218000  1
  C  C83  1  0.55200000  0.91033000  0.05850000  1
  C  C84  1  0.14508000  0.72495000  0.09016000  1
  C  C85  1  0.12093000  0.74955000  0.15197000  1
  C  C86  1  0.08978000  0.64173000  0.05799000  1
  C  C87  1  0.72490000  0.58004000  0.59027000  1
  C  C88  1  0.74935000  0.62874000  0.65209000  1
  C  C89  1  0.64173000  0.55214000  0.55799000  1
  C  C90  1  0.42002000  0.14509000  0.59046000  1
  C  C91  1  0.37119000  0.12101000  0.65218000  1
  C  C92  1  0.44800000  0.08967000  0.55850000  1
  C  C93  1  0.85492000  0.27506000  0.59016000  1
  C  C94  1  0.87907000  0.25046000  0.65197000  1
  C  C95  1  0.91023000  0.35829000  0.55800000  1
  C  C96  1  0.58004000  0.72491000  0.09027000  1
  C  C97  1  0.62873000  0.74936000  0.15209000  1
  C  C98  1  0.55214000  0.64174000  0.05798000  1
  C  C99  1  0.14509000  0.42002000  0.09046000  1
  C  C100  1  0.12101000  0.37119000  0.15218000  1
  C  C101  1  0.08967000  0.44800000  0.05850000  1
  C  C102  1  0.27505000  0.85492000  0.09016000  1
  C  C103  1  0.25046000  0.87908000  0.15197000  1
  C  C104  1  0.35827000  0.91023000  0.05799000  1
  C  C105  1  0.41996000  0.27510000  0.59027000  1
  C  C106  1  0.37126000  0.25065000  0.65209000  1
  C  C107  1  0.44786000  0.35827000  0.55799000  1
  C  C108  1  0.85491000  0.57998000  0.59046000  1
  C  C109  1  0.87899000  0.62882000  0.65218000  1
  C  C110  1  0.91033000  0.55200000  0.55850000  1
  C  C111  1  0.72495000  0.14508000  0.59016000  1
  C  C112  1  0.74954000  0.12093000  0.65197000  1
  C  C113  1  0.64172000  0.08977000  0.55800000  1
  C  C114  1  0.72490000  0.58004000  0.90974000  1
  C  C115  1  0.74935000  0.62874000  0.84791000  1
  C  C116  1  0.64173000  0.55214000  0.94201000  1
  C  C117  1  0.42002000  0.14509000  0.90955000  1
  C  C118  1  0.37119000  0.12101000  0.84782000  1
  C  C119  1  0.44800000  0.08967000  0.94150000  1
  C  C120  1  0.85492000  0.27506000  0.90984000  1
  C  C121  1  0.87907000  0.25046000  0.84803000  1
  C  C122  1  0.91023000  0.35829000  0.94200000  1
  C  C123  1  0.27510000  0.41996000  0.40974000  1
  C  C124  1  0.25065000  0.37127000  0.34792000  1
  C  C125  1  0.35826000  0.44786000  0.44202000  1
  C  C126  1  0.57998000  0.85492000  0.40955000  1
  C  C127  1  0.62881000  0.87900000  0.34782000  1
  C  C128  1  0.55200000  0.91033000  0.44150000  1
  C  C129  1  0.14508000  0.72495000  0.40985000  1
  C  C130  1  0.12093000  0.74955000  0.34804000  1
  C  C131  1  0.08978000  0.64173000  0.44202000  1
  C  C132  1  0.34557000  0.17304000  0.81703000  1
  C  C133  1  0.44352000  0.22180000  0.94118000  1
  C  C134  1  0.82696000  0.65443000  0.81703000  1
  C  C135  1  0.77820000  0.55649000  0.94118000  1
  C  C136  1  0.82710000  0.17290000  0.81712000  1
  C  C137  1  0.77816000  0.22185000  0.94138000  1
  C  C138  1  0.65443000  0.82696000  0.31703000  1
  C  C139  1  0.55648000  0.77820000  0.44118000  1
  C  C140  1  0.17304000  0.34557000  0.31703000  1
  C  C141  1  0.22180000  0.44352000  0.44118000  1
  C  C142  1  0.17290000  0.82710000  0.31712000  1
  C  C143  1  0.22184000  0.77816000  0.44139000  1
  C  C144  1  0.17304000  0.34557000  0.18297000  1
  C  C145  1  0.22180000  0.44352000  0.05882000  1
  C  C146  1  0.65443000  0.82696000  0.18297000  1
  C  C147  1  0.55648000  0.77820000  0.05882000  1
  C  C148  1  0.17290000  0.82710000  0.18289000  1
  C  C149  1  0.22184000  0.77816000  0.05862000  1
  C  C150  1  0.82696000  0.65443000  0.68297000  1
  C  C151  1  0.77820000  0.55649000  0.55882000  1
  C  C152  1  0.34557000  0.17304000  0.68297000  1
  C  C153  1  0.44352000  0.22180000  0.55882000  1
  C  C154  1  0.82710000  0.17290000  0.68289000  1
  C  C155  1  0.77816000  0.22185000  0.55862000  1
  C  C156  1  0.29305000  0.14684000  0.75000000  1
  C  C157  1  0.85316000  0.70695000  0.75000000  1
  C  C158  1  0.85333000  0.14667000  0.75000000  1
  C  C159  1  0.70695000  0.85317000  0.25000000  1
  C  C160  1  0.14684000  0.29305000  0.25000000  1
  C  C161  1  0.14667000  0.85333000  0.25000000  1
  O  O162  1  0.48013000  0.37061000  0.00413000  1
  O  O163  1  0.43816000  0.41084000  0.90534000  1
  O  O164  1  0.89085000  0.52003000  0.00378000  1
  O  O165  1  0.97214000  0.56134000  0.90433000  1
  O  O166  1  0.62931000  0.10925000  0.00430000  1
  O  O167  1  0.58913000  0.02794000  0.90495000  1
  O  O168  1  0.51987000  0.62940000  0.50414000  1
  O  O169  1  0.56184000  0.58916000  0.40535000  1
  O  O170  1  0.10915000  0.47997000  0.50378000  1
  O  O171  1  0.02786000  0.43867000  0.40433000  1
  O  O172  1  0.37069000  0.89075000  0.50431000  1
  O  O173  1  0.41087000  0.97207000  0.40497000  1
  O  O174  1  0.37060000  0.48013000  0.99586000  1
  O  O175  1  0.41084000  0.43817000  0.09465000  1
  O  O176  1  0.52003000  0.89085000  0.99623000  1
  O  O177  1  0.56133000  0.97214000  0.09567000  1
  O  O178  1  0.10925000  0.62931000  0.99570000  1
  O  O179  1  0.02793000  0.58913000  0.09503000  1
  O  O180  1  0.62939000  0.51987000  0.49587000  1
  O  O181  1  0.58916000  0.56183000  0.59466000  1
  O  O182  1  0.47997000  0.10915000  0.49623000  1
  O  O183  1  0.43867000  0.02786000  0.59567000  1
  O  O184  1  0.89076000  0.37069000  0.49570000  1
  O  O185  1  0.97206000  0.41087000  0.59505000  1
  O  O186  1  0.51987000  0.62940000  0.99587000  1
  O  O187  1  0.56184000  0.58916000  0.09465000  1
  O  O188  1  0.10915000  0.47997000  0.99623000  1
  O  O189  1  0.02786000  0.43867000  0.09567000  1
  O  O190  1  0.37069000  0.89075000  0.99570000  1
  O  O191  1  0.41087000  0.97207000  0.09503000  1
  O  O192  1  0.48013000  0.37061000  0.49587000  1
  O  O193  1  0.43817000  0.41084000  0.59466000  1
  O  O194  1  0.89085000  0.52003000  0.49623000  1
  O  O195  1  0.97214000  0.56133000  0.59567000  1
  O  O196  1  0.62931000  0.10925000  0.49570000  1
  O  O197  1  0.58913000  0.02794000  0.59505000  1
  O  O198  1  0.62939000  0.51987000  0.00413000  1
  O  O199  1  0.58916000  0.56183000  0.90534000  1
  O  O200  1  0.47997000  0.10915000  0.00378000  1
  O  O201  1  0.43867000  0.02786000  0.90433000  1
  O  O202  1  0.89076000  0.37069000  0.00430000  1
  O  O203  1  0.97206000  0.41087000  0.90495000  1
  O  O204  1  0.37060000  0.48013000  0.50414000  1
  O  O205  1  0.41084000  0.43817000  0.40535000  1
  O  O206  1  0.52003000  0.89085000  0.50378000  1
  O  O207  1  0.56133000  0.97214000  0.40433000  1
  O  O208  1  0.10925000  0.62931000  0.50431000  1
  O  O209  1  0.02793000  0.58913000  0.40497000  1
