# generated using pymatgen
data_CoH16(C12N5)2
_symmetry_space_group_name_H-M   'P 1'
_cell_length_a   9.22648000
_cell_length_b   16.05942000
_cell_length_c   16.10689000
_cell_angle_alpha   72.61384000
_cell_angle_beta   74.32790000
_cell_angle_gamma   75.98596000
_symmetry_Int_Tables_number   1
_chemical_formula_structural   CoH16(C12N5)2
_chemical_formula_sum   'Co3 H48 C72 N30'
_cell_volume   2158.76599298
_cell_formula_units_Z   3
loop_
 _symmetry_equiv_pos_site_id
 _symmetry_equiv_pos_as_xyz
  1  'x, y, z'
loop_
 _atom_site_type_symbol
 _atom_site_label
 _atom_site_symmetry_multiplicity
 _atom_site_fract_x
 _atom_site_fract_y
 _atom_site_fract_z
 _atom_site_occupancy
  Co  Co0  1  0.49984000  0.49949000  0.00038000  1
  Co  Co1  1  0.99979000  0.00002000  0.50015000  1
  Co  Co2  1  0.99995000  0.50010000  0.49970000  1
  H  H3  1  0.95853000  0.67929000  0.02397000  1
  H  H4  1  0.94704000  0.73656000  0.15604000  1
  H  H5  1  0.17606000  0.69240000  0.22626000  1
  H  H6  1  0.40776000  0.59374000  0.16132000  1
  H  H7  1  0.19051000  0.38164000  0.63360000  1
  H  H8  1  0.27612000  0.38883000  0.76557000  1
  H  H9  1  0.97356000  0.63983000  0.75889000  1
  H  H10  1  0.89989000  0.62334000  0.62675000  1
  H  H11  1  0.94482000  0.00273000  0.82238000  1
  H  H12  1  0.10291000  0.11985000  0.79591000  1
  H  H13  1  0.21966000  0.19252000  0.63689000  1
  H  H14  1  0.17789000  0.14263000  0.51347000  1
  H  H15  1  0.63180000  0.65116000  0.00605000  1
  H  H16  1  0.74186000  0.78352000  0.90627000  1
  H  H17  1  0.64610000  0.72216000  0.68569000  1
  H  H18  1  0.54050000  0.59268000  0.79349000  1
  H  H19  1  0.47410000  0.42151000  0.65189000  1
  H  H20  1  0.55094000  0.25416000  0.68640000  1
  H  H21  1  0.82801000  0.18915000  0.64162000  1
  H  H22  1  0.01622000  0.29257000  0.56395000  1
  H  H23  1  0.35664000  0.97232000  0.45335000  1
  H  H24  1  0.58090000  0.85146000  0.46704000  1
  H  H25  1  0.26689000  0.66902000  0.60114000  1
  H  H26  1  0.05387000  0.79773000  0.58466000  1
  H  H27  1  0.04134000  0.32082000  0.97595000  1
  H  H28  1  0.05327000  0.26364000  0.84375000  1
  H  H29  1  0.82416000  0.30749000  0.77365000  1
  H  H30  1  0.59223000  0.40592000  0.83874000  1
  H  H31  1  0.80939000  0.61850000  0.36623000  1
  H  H32  1  0.72365000  0.61132000  0.23429000  1
  H  H33  1  0.02640000  0.36018000  0.24099000  1
  H  H34  1  0.09994000  0.37678000  0.37312000  1
  H  H35  1  0.05531000  0.99720000  0.17781000  1
  H  H36  1  0.89749000  0.88002000  0.20426000  1
  H  H37  1  0.77993000  0.80764000  0.36317000  1
  H  H38  1  0.82165000  0.85745000  0.48664000  1
  H  H39  1  0.36794000  0.34855000  0.99407000  1
  H  H40  1  0.25822000  0.21615000  0.09394000  1
  H  H41  1  0.35404000  0.27782000  0.31443000  1
  H  H42  1  0.45943000  0.40733000  0.20642000  1
  H  H43  1  0.52588000  0.57849000  0.34815000  1
  H  H44  1  0.44931000  0.74587000  0.31369000  1
  H  H45  1  0.17214000  0.81099000  0.35827000  1
  H  H46  1  0.98380000  0.70756000  0.43586000  1
  H  H47  1  0.64320000  0.02776000  0.54685000  1
  H  H48  1  0.41889000  0.14855000  0.53295000  1
  H  H49  1  0.73301000  0.33101000  0.39874000  1
  H  H50  1  0.94596000  0.20227000  0.41553000  1
  C  C51  1  0.18787000  0.52647000  0.84427000  1
  C  C52  1  0.20645000  0.57006000  0.95060000  1
  C  C53  1  0.18800000  0.60827000  0.02461000  1
  C  C54  1  0.05456000  0.66328000  0.05650000  1
  C  C55  1  0.04959000  0.69424000  0.12941000  1
  C  C56  1  0.17646000  0.66979000  0.16888000  1
  C  C57  1  0.30530000  0.61486000  0.13348000  1
  C  C58  1  0.14585000  0.43791000  0.66299000  1
  C  C59  1  0.19364000  0.44231000  0.73576000  1
  C  C60  1  0.13458000  0.51657000  0.77136000  1
  C  C61  1  0.02405000  0.58200000  0.73240000  1
  C  C62  1  0.98305000  0.57283000  0.65925000  1
  C  C63  1  0.77347000  0.83957000  0.73069000  1
  C  C64  1  0.89273000  0.94574000  0.69041000  1
  C  C65  1  0.98059000  0.01224000  0.68261000  1
  C  C66  1  0.99950000  0.03557000  0.75573000  1
  C  C67  1  0.08729000  0.10019000  0.74023000  1
  C  C68  1  0.15374000  0.13988000  0.65262000  1
  C  C69  1  0.13009000  0.11326000  0.58314000  1
  C  C70  1  0.63600000  0.66943000  0.93489000  1
  C  C71  1  0.69661000  0.74279000  0.87974000  1
  C  C72  1  0.70264000  0.76435000  0.78779000  1
  C  C73  1  0.64441000  0.70926000  0.75620000  1
  C  C74  1  0.58587000  0.63654000  0.81624000  1
  C  C75  1  0.56484000  0.67090000  0.54115000  1
  C  C76  1  0.66999000  0.53721000  0.56822000  1
  C  C77  1  0.70439000  0.44136000  0.59227000  1
  C  C78  1  0.59198000  0.38868000  0.63519000  1
  C  C79  1  0.63569000  0.29705000  0.65370000  1
  C  C80  1  0.78995000  0.26045000  0.62884000  1
  C  C81  1  0.89510000  0.31725000  0.58574000  1
  C  C82  1  0.34104000  0.90430000  0.48638000  1
  C  C83  1  0.46648000  0.83609000  0.49380000  1
  C  C84  1  0.44304000  0.74851000  0.53477000  1
  C  C85  1  0.29062000  0.73563000  0.56899000  1
  C  C86  1  0.17215000  0.80723000  0.55934000  1
  C  C87  1  0.81186000  0.47345000  0.15564000  1
  C  C88  1  0.79329000  0.42983000  0.04934000  1
  C  C89  1  0.81189000  0.39169000  0.97528000  1
  C  C90  1  0.94538000  0.33675000  0.94342000  1
  C  C91  1  0.95058000  0.30582000  0.87045000  1
  C  C92  1  0.82371000  0.33014000  0.83101000  1
  C  C93  1  0.69472000  0.38491000  0.86651000  1
  C  C94  1  0.85393000  0.56223000  0.33680000  1
  C  C95  1  0.80608000  0.55775000  0.26407000  1
  C  C96  1  0.86508000  0.48341000  0.22855000  1
  C  C97  1  0.97574000  0.41802000  0.26747000  1
  C  C98  1  0.01678000  0.42726000  0.34059000  1
  C  C99  1  0.22652000  0.16034000  0.26957000  1
  C  C100  1  0.10717000  0.05422000  0.30984000  1
  C  C101  1  0.01962000  0.98759000  0.31761000  1
  C  C102  1  0.00065000  0.96435000  0.24445000  1
  C  C103  1  0.91302000  0.89967000  0.25995000  1
  C  C104  1  0.84625000  0.86008000  0.34751000  1
  C  C105  1  0.86978000  0.88672000  0.41700000  1
  C  C106  1  0.36385000  0.33029000  0.06522000  1
  C  C107  1  0.30325000  0.25699000  0.12047000  1
  C  C108  1  0.29719000  0.23558000  0.21243000  1
  C  C109  1  0.35552000  0.29069000  0.24393000  1
  C  C110  1  0.41408000  0.36335000  0.18382000  1
  C  C111  1  0.43495000  0.32917000  0.45878000  1
  C  C112  1  0.32992000  0.46288000  0.43166000  1
  C  C113  1  0.29557000  0.55873000  0.40767000  1
  C  C114  1  0.40803000  0.61138000  0.36484000  1
  C  C115  1  0.36445000  0.70303000  0.34634000  1
  C  C116  1  0.21016000  0.73966000  0.37113000  1
  C  C117  1  0.10494000  0.68288000  0.41411000  1
  C  C118  1  0.65873000  0.09576000  0.51364000  1
  C  C119  1  0.53330000  0.16398000  0.50623000  1
  C  C120  1  0.55674000  0.25154000  0.46515000  1
  C  C121  1  0.70920000  0.26443000  0.43101000  1
  C  C122  1  0.82765000  0.19281000  0.44066000  1
  N  N123  1  0.33727000  0.51165000  0.93093000  1
  N  N124  1  0.32586000  0.48250000  0.86278000  1
  N  N125  1  0.10983000  0.58216000  0.89712000  1
  N  N126  1  0.31196000  0.58463000  0.06278000  1
  N  N127  1  0.04362000  0.50254000  0.62338000  1
  N  N128  1  0.87254000  0.93249000  0.61482000  1
  N  N129  1  0.79554000  0.86369000  0.64029000  1
  N  N130  1  0.83181000  0.88951000  0.76460000  1
  N  N131  1  0.04551000  0.05073000  0.59724000  1
  N  N132  1  0.58124000  0.61590000  0.90457000  1
  N  N133  1  0.78446000  0.58465000  0.52520000  1
  N  N134  1  0.71704000  0.67182000  0.50707000  1
  N  N135  1  0.53127000  0.58810000  0.57993000  1
  N  N136  1  0.85418000  0.40604000  0.56769000  1
  N  N137  1  0.19457000  0.89127000  0.51798000  1
  N  N138  1  0.66237000  0.48812000  0.06912000  1
  N  N139  1  0.67373000  0.51727000  0.13727000  1
  N  N140  1  0.88998000  0.41782000  0.10274000  1
  N  N141  1  0.68776000  0.41502000  0.93733000  1
  N  N142  1  0.95628000  0.49763000  0.37634000  1
  N  N143  1  0.12736000  0.06745000  0.38544000  1
  N  N144  1  0.20455000  0.13616000  0.35996000  1
  N  N145  1  0.16821000  0.11039000  0.23565000  1
  N  N146  1  0.95409000  0.94936000  0.40295000  1
  N  N147  1  0.41848000  0.38389000  0.09552000  1
  N  N148  1  0.21539000  0.41549000  0.47463000  1
  N  N149  1  0.28268000  0.32830000  0.49273000  1
  N  N150  1  0.46860000  0.41194000  0.41993000  1
  N  N151  1  0.14573000  0.59408000  0.43207000  1
  N  N152  1  0.80520000  0.10880000  0.48218000  1
