# generated using pymatgen
data_SrH14C8(SO2)2
_symmetry_space_group_name_H-M   'P 1'
_cell_length_a   11.07110000
_cell_length_b   11.07110000
_cell_length_c   11.62234865
_cell_angle_alpha   117.99783360
_cell_angle_beta   117.99783360
_cell_angle_gamma   90.82340000
_symmetry_Int_Tables_number   1
_chemical_formula_structural   SrH14C8(SO2)2
_chemical_formula_sum   'Sr2 H28 C16 S4 O8'
_cell_volume   1059.07375813
_cell_formula_units_Z   2
loop_
 _symmetry_equiv_pos_site_id
 _symmetry_equiv_pos_as_xyz
  1  'x, y, z'
loop_
 _atom_site_type_symbol
 _atom_site_label
 _atom_site_symmetry_multiplicity
 _atom_site_fract_x
 _atom_site_fract_y
 _atom_site_fract_z
 _atom_site_occupancy
  Sr  Sr1  1  0.26646000  0.73354000  0.00000000  1.0
  Sr  Sr2  1  0.51646000  0.48354000  0.50000000  1.0
  H  H1  1  0.25410000  0.14230000  0.39360000  1.0
  H  H2  1  0.99170000  0.93210000  0.12520000  1.0
  H  H3  1  0.04270000  0.08990000  0.16440000  1.0
  H  H4  1  0.00720000  0.06880000  0.27360000  1.0
  H  H5  1  0.17540000  0.96720000  0.42600000  1.0
  H  H6  1  0.31840000  0.95500000  0.42420000  1.0
  H  H7  1  0.16630000  0.84390000  0.27400000  1.0
  H  H8  1  0.85770000  0.74590000  0.60640000  1.0
  H  H9  1  0.06790000  0.00830000  0.87480000  1.0
  H  H10  1  0.91010000  0.95730000  0.83560000  1.0
  H  H11  1  0.93120000  0.99280000  0.72640000  1.0
  H  H12  1  0.03280000  0.82460000  0.57400000  1.0
  H  H13  1  0.04500000  0.68160000  0.57580000  1.0
  H  H14  1  0.15610000  0.83370000  0.72600000  1.0
  H  H15  1  0.50130000  0.88950000  0.89360000  1.0
  H  H16  1  0.44310000  0.88350000  0.62520000  1.0
  H  H17  1  0.32450000  0.87170000  0.66440000  1.0
  H  H18  1  0.45480000  0.01640000  0.77360000  1.0
  H  H19  1  0.70880000  0.00060000  0.92600000  1.0
  H  H20  1  0.71920000  0.85580000  0.92420000  1.0
  H  H21  1  0.68010000  0.85770000  0.77400000  1.0
  H  H22  1  0.11050000  0.49870000  0.10640000  1.0
  H  H23  1  0.11650000  0.55690000  0.37480000  1.0
  H  H24  1  0.12830000  0.67550000  0.33560000  1.0
  H  H25  1  0.98360000  0.54520000  0.22640000  1.0
  H  H26  1  0.99940000  0.29120000  0.07400000  1.0
  H  H27  1  0.14420000  0.28080000  0.07580000  1.0
  H  H28  1  0.14230000  0.31990000  0.22600000  1.0
  C  C1  1  0.89920000  0.66120000  0.78220000  1.0
  C  C2  1  0.19860000  0.04120000  0.30420000  1.0
  C  C3  1  0.04730000  0.03230000  0.20880000  1.0
  C  C4  1  0.21600000  0.94340000  0.36200000  1.0
  C  C5  1  0.33880000  0.10080000  0.21780000  1.0
  C  C6  1  0.95880000  0.80140000  0.69580000  1.0
  C  C7  1  0.96770000  0.95270000  0.79120000  1.0
  C  C8  1  0.05660000  0.78400000  0.63800000  1.0
  C  C9  1  0.37100000  0.63300000  0.28220000  1.0
  C  C10  1  0.51300000  0.85560000  0.80420000  1.0
  C  C11  1  0.42650000  0.91150000  0.70880000  1.0
  C  C12  1  0.66860000  0.89600000  0.86200000  1.0
  C  C13  1  0.36700000  0.62900000  0.71780000  1.0
  C  C14  1  0.14440000  0.48700000  0.19580000  1.0
  C  C15  1  0.08850000  0.57350000  0.29120000  1.0
  C  C16  1  0.10400000  0.33140000  0.13800000  1.0
  S  S1  1  0.96545000  0.60989000  0.91154000  1.0
  S  S2  1  0.39011000  0.03455000  0.08846000  1.0
  S  S3  1  0.55165000  0.69609000  0.41154000  1.0
  S  S4  1  0.30391000  0.44835000  0.58846000  1.0
  O  O1  1  0.77430000  0.63350000  0.68580000  1.0
  O  O2  1  0.00480000  0.74060000  0.79340000  1.0
  O  O3  1  0.36650000  0.22570000  0.31420000  1.0
  O  O4  1  0.25940000  0.99520000  0.20660000  1.0
  O  O5  1  0.30230000  0.66150000  0.18580000  1.0
  O  O6  1  0.30280000  0.53860000  0.29340000  1.0
  O  O7  1  0.33850000  0.69770000  0.81420000  1.0
  O  O8  1  0.46140000  0.69720000  0.70660000  1.0
