# generated using pymatgen
data_PrCu4H12C18I4(NO2)3
_symmetry_space_group_name_H-M   'P 1'
_cell_length_a   15.09500000
_cell_length_b   25.05320000
_cell_length_c   28.92703438
_cell_angle_alpha   90.00000000
_cell_angle_beta   101.83071877
_cell_angle_gamma   90.00000000
_symmetry_Int_Tables_number   1
_chemical_formula_structural   PrCu4H12C18I4(NO2)3
_chemical_formula_sum   'Pr12 Cu48 H144 C216 I48 N36 O72'
_cell_volume   10707.18695405
_cell_formula_units_Z   12
loop_
 _symmetry_equiv_pos_site_id
 _symmetry_equiv_pos_as_xyz
  1  'x, y, z'
loop_
 _atom_site_type_symbol
 _atom_site_label
 _atom_site_symmetry_multiplicity
 _atom_site_fract_x
 _atom_site_fract_y
 _atom_site_fract_z
 _atom_site_occupancy
  Pr  Pr1  1  0.42322000  0.40003000  0.46473000  1.0
  Pr  Pr2  1  0.54715000  0.24090000  0.50388000  1.0
  Pr  Pr3  1  0.45151000  0.07638000  0.48509000  1.0
  Pr  Pr4  1  0.07678000  0.90003000  0.03527000  1.0
  Pr  Pr5  1  0.95285000  0.74090000  0.99612000  1.0
  Pr  Pr6  1  0.04849000  0.57638000  0.01491000  1.0
  Pr  Pr7  1  0.57678000  0.59997000  0.53527000  1.0
  Pr  Pr8  1  0.45285000  0.75910000  0.49612000  1.0
  Pr  Pr9  1  0.54849000  0.92362000  0.51491000  1.0
  Pr  Pr10  1  0.92322000  0.09997000  0.96473000  1.0
  Pr  Pr11  1  0.04715000  0.25910000  0.00388000  1.0
  Pr  Pr12  1  0.95151000  0.42362000  0.98509000  1.0
  Cu  Cu1  1  0.39337000  0.37718000  0.74230000  1.0
  Cu  Cu2  1  0.33693000  0.37682000  0.81973000  1.0
  Cu  Cu3  1  0.49147000  0.32944000  0.81434000  1.0
  Cu  Cu4  1  0.34312000  0.28125000  0.77916000  1.0
  Cu  Cu5  1  0.14522000  0.20421000  0.67644000  1.0
  Cu  Cu6  1  0.58354000  0.29823000  0.25279000  1.0
  Cu  Cu7  1  0.00186000  0.14646000  0.67835000  1.0
  Cu  Cu8  1  0.15628000  0.10572000  0.72018000  1.0
  Cu  Cu9  1  0.43884000  0.03894000  0.75718000  1.0
  Cu  Cu10  1  0.87420000  0.46049000  0.33406000  1.0
  Cu  Cu11  1  0.96321000  0.48371000  0.66576000  1.0
  Cu  Cu12  1  0.11887000  0.44356000  0.71173000  1.0
  Cu  Cu13  1  0.10663000  0.87718000  0.75770000  1.0
  Cu  Cu14  1  0.16307000  0.87682000  0.68027000  1.0
  Cu  Cu15  1  0.00853000  0.82944000  0.68566000  1.0
  Cu  Cu16  1  0.15688000  0.78125000  0.72084000  1.0
  Cu  Cu17  1  0.35478000  0.70421000  0.82356000  1.0
  Cu  Cu18  1  0.91646000  0.79823000  0.24721000  1.0
  Cu  Cu19  1  0.49814000  0.64646000  0.82165000  1.0
  Cu  Cu20  1  0.34372000  0.60572000  0.77982000  1.0
  Cu  Cu21  1  0.06116000  0.53894000  0.74282000  1.0
  Cu  Cu22  1  0.62580000  0.96049000  0.16594000  1.0
  Cu  Cu23  1  0.53679000  0.98371000  0.83424000  1.0
  Cu  Cu24  1  0.38113000  0.94356000  0.78827000  1.0
  Cu  Cu25  1  0.60663000  0.62282000  0.25770000  1.0
  Cu  Cu26  1  0.66307000  0.62318000  0.18027000  1.0
  Cu  Cu27  1  0.50853000  0.67056000  0.18566000  1.0
  Cu  Cu28  1  0.65688000  0.71875000  0.22084000  1.0
  Cu  Cu29  1  0.85478000  0.79579000  0.32356000  1.0
  Cu  Cu30  1  0.41646000  0.70177000  0.74721000  1.0
  Cu  Cu31  1  0.99814000  0.85354000  0.32165000  1.0
  Cu  Cu32  1  0.84372000  0.89428000  0.27982000  1.0
  Cu  Cu33  1  0.56116000  0.96106000  0.24282000  1.0
  Cu  Cu34  1  0.12580000  0.53951000  0.66594000  1.0
  Cu  Cu35  1  0.03679000  0.51629000  0.33424000  1.0
  Cu  Cu36  1  0.88113000  0.55644000  0.28827000  1.0
  Cu  Cu37  1  0.89337000  0.12282000  0.24230000  1.0
  Cu  Cu38  1  0.83693000  0.12318000  0.31973000  1.0
  Cu  Cu39  1  0.99147000  0.17056000  0.31434000  1.0
  Cu  Cu40  1  0.84312000  0.21875000  0.27916000  1.0
  Cu  Cu41  1  0.64522000  0.29579000  0.17644000  1.0
  Cu  Cu42  1  0.08354000  0.20177000  0.75279000  1.0
  Cu  Cu43  1  0.50186000  0.35354000  0.17835000  1.0
  Cu  Cu44  1  0.65628000  0.39428000  0.22018000  1.0
  Cu  Cu45  1  0.93884000  0.46106000  0.25718000  1.0
  Cu  Cu46  1  0.37420000  0.03951000  0.83406000  1.0
  Cu  Cu47  1  0.46321000  0.01629000  0.16576000  1.0
  Cu  Cu48  1  0.61887000  0.05644000  0.21173000  1.0
  H  H1  1  0.29550000  0.38690000  0.64490000  1.0
  H  H2  1  0.31050000  0.42460000  0.57380000  1.0
  H  H3  1  0.53170000  0.50330000  0.64350000  1.0
  H  H4  1  0.51050000  0.46430000  0.71280000  1.0
  H  H5  1  0.12120000  0.29880000  0.60810000  1.0
  H  H6  1  0.19820000  0.33610000  0.55440000  1.0
  H  H7  1  0.40890000  0.23850000  0.60600000  1.0
  H  H8  1  0.32560000  0.20360000  0.65760000  1.0
  H  H9  1  0.77050000  0.51050000  0.61650000  1.0
  H  H10  1  0.64340000  0.46850000  0.57310000  1.0
  H  H11  1  0.77570000  0.32780000  0.59930000  1.0
  H  H12  1  0.90030000  0.37410000  0.63980000  1.0
  H  H13  1  0.69080000  0.46530000  0.35270000  1.0
  H  H14  1  0.59320000  0.41960000  0.39070000  1.0
  H  H15  1  0.78790000  0.30790000  0.42870000  1.0
  H  H16  1  0.88000000  0.35680000  0.38980000  1.0
  H  H17  1  0.06730000  0.27670000  0.34160000  1.0
  H  H18  1  0.20050000  0.31540000  0.38130000  1.0
  H  H19  1  0.32000000  0.17140000  0.38600000  1.0
  H  H20  1  0.18320000  0.13610000  0.34780000  1.0
  H  H21  1  0.56920000  0.11970000  0.73240000  1.0
  H  H22  1  0.59850000  0.16420000  0.66760000  1.0
  H  H23  1  0.36170000  0.10810000  0.59220000  1.0
  H  H24  1  0.33970000  0.06330000  0.65920000  1.0
  H  H25  1  0.68180000  0.25650000  0.34600000  1.0
  H  H26  1  0.65670000  0.20190000  0.40680000  1.0
  H  H27  1  0.41430000  0.16320000  0.32600000  1.0
  H  H28  1  0.44430000  0.22040000  0.26870000  1.0
  H  H29  1  0.12110000  0.95540000  0.60100000  1.0
  H  H30  1  0.19460000  0.00160000  0.55050000  1.0
  H  H31  1  0.43140000  0.94230000  0.62310000  1.0
  H  H32  1  0.35170000  0.89920000  0.67280000  1.0
  H  H33  1  0.18890000  0.82320000  0.36140000  1.0
  H  H34  1  0.31990000  0.86050000  0.40370000  1.0
  H  H35  1  0.19350000  0.00180000  0.39560000  1.0
  H  H36  1  0.06190000  0.95960000  0.35840000  1.0
  H  H37  1  0.20450000  0.88690000  0.85510000  1.0
  H  H38  1  0.18950000  0.92460000  0.92620000  1.0
  H  H39  1  0.96830000  0.00330000  0.85650000  1.0
  H  H40  1  0.98950000  0.96430000  0.78720000  1.0
  H  H41  1  0.37880000  0.79880000  0.89190000  1.0
  H  H42  1  0.30180000  0.83610000  0.94560000  1.0
  H  H43  1  0.09110000  0.73850000  0.89400000  1.0
  H  H44  1  0.17440000  0.70360000  0.84240000  1.0
  H  H45  1  0.72950000  0.01050000  0.88350000  1.0
  H  H46  1  0.85660000  0.96850000  0.92690000  1.0
  H  H47  1  0.72430000  0.82780000  0.90070000  1.0
  H  H48  1  0.59970000  0.87410000  0.86020000  1.0
  H  H49  1  0.80920000  0.96530000  0.14730000  1.0
  H  H50  1  0.90680000  0.91960000  0.10930000  1.0
  H  H51  1  0.71210000  0.80790000  0.07130000  1.0
  H  H52  1  0.62000000  0.85680000  0.11020000  1.0
  H  H53  1  0.43270000  0.77670000  0.15840000  1.0
  H  H54  1  0.29950000  0.81540000  0.11870000  1.0
  H  H55  1  0.18000000  0.67140000  0.11400000  1.0
  H  H56  1  0.31680000  0.63610000  0.15220000  1.0
  H  H57  1  0.93080000  0.61970000  0.76760000  1.0
  H  H58  1  0.90150000  0.66420000  0.83240000  1.0
  H  H59  1  0.13830000  0.60810000  0.90780000  1.0
  H  H60  1  0.16030000  0.56330000  0.84080000  1.0
  H  H61  1  0.81820000  0.75650000  0.15400000  1.0
  H  H62  1  0.84330000  0.70190000  0.09320000  1.0
  H  H63  1  0.08570000  0.66320000  0.17400000  1.0
  H  H64  1  0.05570000  0.72040000  0.23130000  1.0
  H  H65  1  0.37890000  0.45540000  0.89900000  1.0
  H  H66  1  0.30540000  0.50160000  0.94950000  1.0
  H  H67  1  0.06860000  0.44230000  0.87690000  1.0
  H  H68  1  0.14830000  0.39920000  0.82720000  1.0
  H  H69  1  0.31110000  0.32320000  0.13860000  1.0
  H  H70  1  0.18010000  0.36050000  0.09630000  1.0
  H  H71  1  0.30650000  0.50180000  0.10440000  1.0
  H  H72  1  0.43810000  0.45960000  0.14160000  1.0
  H  H73  1  0.70450000  0.61310000  0.35510000  1.0
  H  H74  1  0.68950000  0.57540000  0.42620000  1.0
  H  H75  1  0.46830000  0.49670000  0.35650000  1.0
  H  H76  1  0.48950000  0.53570000  0.28720000  1.0
  H  H77  1  0.87880000  0.70120000  0.39190000  1.0
  H  H78  1  0.80180000  0.66390000  0.44560000  1.0
  H  H79  1  0.59110000  0.76150000  0.39400000  1.0
  H  H80  1  0.67440000  0.79640000  0.34240000  1.0
  H  H81  1  0.22950000  0.48950000  0.38350000  1.0
  H  H82  1  0.35660000  0.53150000  0.42690000  1.0
  H  H83  1  0.22430000  0.67220000  0.40070000  1.0
  H  H84  1  0.09970000  0.62590000  0.36020000  1.0
  H  H85  1  0.30920000  0.53470000  0.64730000  1.0
  H  H86  1  0.40680000  0.58040000  0.60930000  1.0
  H  H87  1  0.21210000  0.69210000  0.57130000  1.0
  H  H88  1  0.12000000  0.64320000  0.61020000  1.0
  H  H89  1  0.93270000  0.72330000  0.65840000  1.0
  H  H90  1  0.79950000  0.68460000  0.61870000  1.0
  H  H91  1  0.68000000  0.82860000  0.61400000  1.0
  H  H92  1  0.81680000  0.86390000  0.65220000  1.0
  H  H93  1  0.43080000  0.88030000  0.26760000  1.0
  H  H94  1  0.40150000  0.83580000  0.33240000  1.0
  H  H95  1  0.63830000  0.89190000  0.40780000  1.0
  H  H96  1  0.66030000  0.93670000  0.34080000  1.0
  H  H97  1  0.31820000  0.74350000  0.65400000  1.0
  H  H98  1  0.34330000  0.79810000  0.59320000  1.0
  H  H99  1  0.58570000  0.83680000  0.67400000  1.0
  H  H100  1  0.55570000  0.77960000  0.73130000  1.0
  H  H101  1  0.87890000  0.04460000  0.39900000  1.0
  H  H102  1  0.80540000  0.99840000  0.44950000  1.0
  H  H103  1  0.56860000  0.05770000  0.37690000  1.0
  H  H104  1  0.64830000  0.10080000  0.32720000  1.0
  H  H105  1  0.81110000  0.17680000  0.63860000  1.0
  H  H106  1  0.68010000  0.13950000  0.59630000  1.0
  H  H107  1  0.80650000  0.99820000  0.60440000  1.0
  H  H108  1  0.93810000  0.04040000  0.64160000  1.0
  H  H109  1  0.79550000  0.11310000  0.14490000  1.0
  H  H110  1  0.81050000  0.07540000  0.07380000  1.0
  H  H111  1  0.03170000  0.99670000  0.14350000  1.0
  H  H112  1  0.01050000  0.03570000  0.21280000  1.0
  H  H113  1  0.62120000  0.20120000  0.10810000  1.0
  H  H114  1  0.69820000  0.16390000  0.05440000  1.0
  H  H115  1  0.90890000  0.26150000  0.10600000  1.0
  H  H116  1  0.82560000  0.29640000  0.15760000  1.0
  H  H117  1  0.27050000  0.98950000  0.11650000  1.0
  H  H118  1  0.14340000  0.03150000  0.07310000  1.0
  H  H119  1  0.27570000  0.17220000  0.09930000  1.0
  H  H120  1  0.40030000  0.12590000  0.13980000  1.0
  H  H121  1  0.19080000  0.03470000  0.85270000  1.0
  H  H122  1  0.09320000  0.08040000  0.89070000  1.0
  H  H123  1  0.28790000  0.19210000  0.92870000  1.0
  H  H124  1  0.38000000  0.14320000  0.88980000  1.0
  H  H125  1  0.56730000  0.22330000  0.84160000  1.0
  H  H126  1  0.70050000  0.18460000  0.88130000  1.0
  H  H127  1  0.82000000  0.32860000  0.88600000  1.0
  H  H128  1  0.68320000  0.36390000  0.84780000  1.0
  H  H129  1  0.06920000  0.38030000  0.23240000  1.0
  H  H130  1  0.09850000  0.33580000  0.16760000  1.0
  H  H131  1  0.86170000  0.39190000  0.09220000  1.0
  H  H132  1  0.83970000  0.43670000  0.15920000  1.0
  H  H133  1  0.18180000  0.24350000  0.84600000  1.0
  H  H134  1  0.15670000  0.29810000  0.90680000  1.0
  H  H135  1  0.91430000  0.33680000  0.82600000  1.0
  H  H136  1  0.94430000  0.27960000  0.76870000  1.0
  H  H137  1  0.62110000  0.54460000  0.10100000  1.0
  H  H138  1  0.69460000  0.49840000  0.05050000  1.0
  H  H139  1  0.93140000  0.55770000  0.12310000  1.0
  H  H140  1  0.85170000  0.60080000  0.17280000  1.0
  H  H141  1  0.68890000  0.67680000  0.86140000  1.0
  H  H142  1  0.81990000  0.63950000  0.90370000  1.0
  H  H143  1  0.69350000  0.49820000  0.89560000  1.0
  H  H144  1  0.56190000  0.54040000  0.85840000  1.0
  C  C1  1  0.34460000  0.41050000  0.64450000  1.0
  C  C2  1  0.35334000  0.43250000  0.60184000  1.0
  C  C3  1  0.42560000  0.46610000  0.60070000  1.0
  C  C4  1  0.48330000  0.47880000  0.64290000  1.0
  C  C5  1  0.47000000  0.45560000  0.68400000  1.0
  C  C6  1  0.43858000  0.48980000  0.55448000  1.0
  C  C7  1  0.17980000  0.28580000  0.60690000  1.0
  C  C8  1  0.22540000  0.30840000  0.57500000  1.0
  C  C9  1  0.31159000  0.29010000  0.57349000  1.0
  C  C10  1  0.34910000  0.25100000  0.60520000  1.0
  C  C11  1  0.29890000  0.23030000  0.63580000  1.0
  C  C12  1  0.36396000  0.31170000  0.53846000  1.0
  C  C13  1  0.77200000  0.47300000  0.61220000  1.0
  C  C14  1  0.69550000  0.44820000  0.58650000  1.0
  C  C15  1  0.69626000  0.39330000  0.58066000  1.0
  C  C16  1  0.77360000  0.36550000  0.60170000  1.0
  C  C17  1  0.84740000  0.39350000  0.62610000  1.0
  C  C18  1  0.61447000  0.36460000  0.55247000  1.0
  C  C19  1  0.71120000  0.43310000  0.36880000  1.0
  C  C20  1  0.65210000  0.40600000  0.39110000  1.0
  C  C21  1  0.68000000  0.35870000  0.41400000  1.0
  C  C22  1  0.76650000  0.34040000  0.41340000  1.0
  C  C23  1  0.82120000  0.37000000  0.39030000  1.0
  C  C24  1  0.61790000  0.32720000  0.43920000  1.0
  C  C25  1  0.11860000  0.25470000  0.35230000  1.0
  C  C26  1  0.19760000  0.27800000  0.37570000  1.0
  C  C27  1  0.27260000  0.24640000  0.39100000  1.0
  C  C28  1  0.26785000  0.19350000  0.37875000  1.0
  C  C29  1  0.18620000  0.17290000  0.35570000  1.0
  C  C30  1  0.35679000  0.27060000  0.42119000  1.0
  C  C31  1  0.52710000  0.11650000  0.70330000  1.0
  C  C32  1  0.54520000  0.14330000  0.66490000  1.0
  C  C33  1  0.48430000  0.13910000  0.62200000  1.0
  C  C34  1  0.40620000  0.11010000  0.62050000  1.0
  C  C35  1  0.39330000  0.08380000  0.66090000  1.0
  C  C36  1  0.50260000  0.16780000  0.57890000  1.0
  C  C37  1  0.62560000  0.23820000  0.34230000  1.0
  C  C38  1  0.61139000  0.20580000  0.37889000  1.0
  C  C39  1  0.52993000  0.17910000  0.37393000  1.0
  C  C40  1  0.46880000  0.18330000  0.33150000  1.0
  C  C41  1  0.48790000  0.21690000  0.29740000  1.0
  C  C42  1  0.50694000  0.14590000  0.41334000  1.0
  C  C43  1  0.18500000  0.95240000  0.60530000  1.0
  C  C44  1  0.22800000  0.97980000  0.57490000  1.0
  C  C45  1  0.32130000  0.97470000  0.58080000  1.0
  C  C46  1  0.36720000  0.94520000  0.61760000  1.0
  C  C47  1  0.31926000  0.91940000  0.64706000  1.0
  C  C48  1  0.36902000  0.00410000  0.54752000  1.0
  C  C49  1  0.18910000  0.86010000  0.36900000  1.0
  C  C50  1  0.26800000  0.88230000  0.39370000  1.0
  C  C51  1  0.27210000  0.93540000  0.40390000  1.0
  C  C52  1  0.19380000  0.96450000  0.38960000  1.0
  C  C53  1  0.11620000  0.93940000  0.36670000  1.0
  C  C54  1  0.35570000  0.96080000  0.43270000  1.0
  C  C55  1  0.15540000  0.91050000  0.85550000  1.0
  C  C56  1  0.14666000  0.93250000  0.89816000  1.0
  C  C57  1  0.07440000  0.96610000  0.89930000  1.0
  C  C58  1  0.01670000  0.97880000  0.85710000  1.0
  C  C59  1  0.03000000  0.95560000  0.81600000  1.0
  C  C60  1  0.06142000  0.98980000  0.94552000  1.0
  C  C61  1  0.32020000  0.78580000  0.89310000  1.0
  C  C62  1  0.27460000  0.80840000  0.92500000  1.0
  C  C63  1  0.18841000  0.79010000  0.92651000  1.0
  C  C64  1  0.15090000  0.75100000  0.89480000  1.0
  C  C65  1  0.20110000  0.73030000  0.86420000  1.0
  C  C66  1  0.13604000  0.81170000  0.96154000  1.0
  C  C67  1  0.72800000  0.97300000  0.88780000  1.0
  C  C68  1  0.80450000  0.94820000  0.91350000  1.0
  C  C69  1  0.80374000  0.89330000  0.91934000  1.0
  C  C70  1  0.72640000  0.86550000  0.89830000  1.0
  C  C71  1  0.65260000  0.89350000  0.87390000  1.0
  C  C72  1  0.88553000  0.86460000  0.94753000  1.0
  C  C73  1  0.78880000  0.93310000  0.13120000  1.0
  C  C74  1  0.84790000  0.90600000  0.10890000  1.0
  C  C75  1  0.82000000  0.85870000  0.08600000  1.0
  C  C76  1  0.73350000  0.84040000  0.08660000  1.0
  C  C77  1  0.67880000  0.87000000  0.10970000  1.0
  C  C78  1  0.88210000  0.82720000  0.06080000  1.0
  C  C79  1  0.38140000  0.75470000  0.14770000  1.0
  C  C80  1  0.30240000  0.77800000  0.12430000  1.0
  C  C81  1  0.22740000  0.74640000  0.10900000  1.0
  C  C82  1  0.23215000  0.69350000  0.12125000  1.0
  C  C83  1  0.31380000  0.67290000  0.14430000  1.0
  C  C84  1  0.14321000  0.77060000  0.07881000  1.0
  C  C85  1  0.97290000  0.61650000  0.79670000  1.0
  C  C86  1  0.95480000  0.64330000  0.83510000  1.0
  C  C87  1  0.01570000  0.63910000  0.87800000  1.0
  C  C88  1  0.09380000  0.61010000  0.87950000  1.0
  C  C89  1  0.10670000  0.58380000  0.83910000  1.0
  C  C90  1  0.99740000  0.66780000  0.92110000  1.0
  C  C91  1  0.87440000  0.73820000  0.15770000  1.0
  C  C92  1  0.88861000  0.70580000  0.12111000  1.0
  C  C93  1  0.97007000  0.67910000  0.12607000  1.0
  C  C94  1  0.03120000  0.68330000  0.16850000  1.0
  C  C95  1  0.01210000  0.71690000  0.20260000  1.0
  C  C96  1  0.99306000  0.64590000  0.08666000  1.0
  C  C97  1  0.31500000  0.45240000  0.89470000  1.0
  C  C98  1  0.27200000  0.47980000  0.92510000  1.0
  C  C99  1  0.17870000  0.47470000  0.91920000  1.0
  C  C100  1  0.13280000  0.44520000  0.88240000  1.0
  C  C101  1  0.18074000  0.41940000  0.85294000  1.0
  C  C102  1  0.13098000  0.50410000  0.95248000  1.0
  C  C103  1  0.31090000  0.36010000  0.13100000  1.0
  C  C104  1  0.23200000  0.38230000  0.10630000  1.0
  C  C105  1  0.22790000  0.43540000  0.09610000  1.0
  C  C106  1  0.30620000  0.46450000  0.11040000  1.0
  C  C107  1  0.38380000  0.43940000  0.13330000  1.0
  C  C108  1  0.14430000  0.46080000  0.06730000  1.0
  C  C109  1  0.65540000  0.58950000  0.35550000  1.0
  C  C110  1  0.64666000  0.56750000  0.39816000  1.0
  C  C111  1  0.57440000  0.53390000  0.39930000  1.0
  C  C112  1  0.51670000  0.52120000  0.35710000  1.0
  C  C113  1  0.53000000  0.54440000  0.31600000  1.0
  C  C114  1  0.56142000  0.51020000  0.44552000  1.0
  C  C115  1  0.82020000  0.71420000  0.39310000  1.0
  C  C116  1  0.77460000  0.69160000  0.42500000  1.0
  C  C117  1  0.68841000  0.70990000  0.42651000  1.0
  C  C118  1  0.65090000  0.74900000  0.39480000  1.0
  C  C119  1  0.70110000  0.76970000  0.36420000  1.0
  C  C120  1  0.63604000  0.68830000  0.46154000  1.0
  C  C121  1  0.22800000  0.52700000  0.38780000  1.0
  C  C122  1  0.30450000  0.55180000  0.41350000  1.0
  C  C123  1  0.30374000  0.60670000  0.41934000  1.0
  C  C124  1  0.22640000  0.63450000  0.39830000  1.0
  C  C125  1  0.15260000  0.60650000  0.37390000  1.0
  C  C126  1  0.38553000  0.63540000  0.44753000  1.0
  C  C127  1  0.28880000  0.56690000  0.63120000  1.0
  C  C128  1  0.34790000  0.59400000  0.60890000  1.0
  C  C129  1  0.32000000  0.64130000  0.58600000  1.0
  C  C130  1  0.23350000  0.65960000  0.58660000  1.0
  C  C131  1  0.17880000  0.63000000  0.60970000  1.0
  C  C132  1  0.38210000  0.67280000  0.56080000  1.0
  C  C133  1  0.88140000  0.74530000  0.64770000  1.0
  C  C134  1  0.80240000  0.72200000  0.62430000  1.0
  C  C135  1  0.72740000  0.75360000  0.60900000  1.0
  C  C136  1  0.73215000  0.80650000  0.62125000  1.0
  C  C137  1  0.81380000  0.82710000  0.64430000  1.0
  C  C138  1  0.64321000  0.72940000  0.57881000  1.0
  C  C139  1  0.47290000  0.88350000  0.29670000  1.0
  C  C140  1  0.45480000  0.85670000  0.33510000  1.0
  C  C141  1  0.51570000  0.86090000  0.37800000  1.0
  C  C142  1  0.59380000  0.88990000  0.37950000  1.0
  C  C143  1  0.60670000  0.91620000  0.33910000  1.0
  C  C144  1  0.49740000  0.83220000  0.42110000  1.0
  C  C145  1  0.37440000  0.76180000  0.65770000  1.0
  C  C146  1  0.38861000  0.79420000  0.62111000  1.0
  C  C147  1  0.47007000  0.82090000  0.62607000  1.0
  C  C148  1  0.53120000  0.81670000  0.66850000  1.0
  C  C149  1  0.51210000  0.78310000  0.70260000  1.0
  C  C150  1  0.49306000  0.85410000  0.58666000  1.0
  C  C151  1  0.81500000  0.04760000  0.39470000  1.0
  C  C152  1  0.77200000  0.02020000  0.42510000  1.0
  C  C153  1  0.67870000  0.02530000  0.41920000  1.0
  C  C154  1  0.63280000  0.05480000  0.38240000  1.0
  C  C155  1  0.68074000  0.08060000  0.35294000  1.0
  C  C156  1  0.63098000  0.99590000  0.45248000  1.0
  C  C157  1  0.81090000  0.13990000  0.63100000  1.0
  C  C158  1  0.73200000  0.11770000  0.60630000  1.0
  C  C159  1  0.72790000  0.06460000  0.59610000  1.0
  C  C160  1  0.80620000  0.03550000  0.61040000  1.0
  C  C161  1  0.88380000  0.06060000  0.63330000  1.0
  C  C162  1  0.64430000  0.03920000  0.56730000  1.0
  C  C163  1  0.84460000  0.08950000  0.14450000  1.0
  C  C164  1  0.85334000  0.06750000  0.10184000  1.0
  C  C165  1  0.92560000  0.03390000  0.10070000  1.0
  C  C166  1  0.98330000  0.02120000  0.14290000  1.0
  C  C167  1  0.97000000  0.04440000  0.18400000  1.0
  C  C168  1  0.93858000  0.01020000  0.05448000  1.0
  C  C169  1  0.67980000  0.21420000  0.10690000  1.0
  C  C170  1  0.72540000  0.19160000  0.07500000  1.0
  C  C171  1  0.81159000  0.20990000  0.07349000  1.0
  C  C172  1  0.84910000  0.24900000  0.10520000  1.0
  C  C173  1  0.79890000  0.26970000  0.13580000  1.0
  C  C174  1  0.86396000  0.18830000  0.03846000  1.0
  C  C175  1  0.27200000  0.02700000  0.11220000  1.0
  C  C176  1  0.19550000  0.05180000  0.08650000  1.0
  C  C177  1  0.19626000  0.10670000  0.08066000  1.0
  C  C178  1  0.27360000  0.13450000  0.10170000  1.0
  C  C179  1  0.34740000  0.10650000  0.12610000  1.0
  C  C180  1  0.11447000  0.13540000  0.05247000  1.0
  C  C181  1  0.21120000  0.06690000  0.86880000  1.0
  C  C182  1  0.15210000  0.09400000  0.89110000  1.0
  C  C183  1  0.18000000  0.14130000  0.91400000  1.0
  C  C184  1  0.26650000  0.15960000  0.91340000  1.0
  C  C185  1  0.32120000  0.13000000  0.89030000  1.0
  C  C186  1  0.11790000  0.17280000  0.93920000  1.0
  C  C187  1  0.61860000  0.24530000  0.85230000  1.0
  C  C188  1  0.69760000  0.22200000  0.87570000  1.0
  C  C189  1  0.77260000  0.25360000  0.89100000  1.0
  C  C190  1  0.76785000  0.30650000  0.87875000  1.0
  C  C191  1  0.68620000  0.32710000  0.85570000  1.0
  C  C192  1  0.85679000  0.22940000  0.92119000  1.0
  C  C193  1  0.02710000  0.38350000  0.20330000  1.0
  C  C194  1  0.04520000  0.35670000  0.16490000  1.0
  C  C195  1  0.98430000  0.36090000  0.12200000  1.0
  C  C196  1  0.90620000  0.38990000  0.12050000  1.0
  C  C197  1  0.89330000  0.41620000  0.16090000  1.0
  C  C198  1  0.00260000  0.33220000  0.07890000  1.0
  C  C199  1  0.12560000  0.26180000  0.84230000  1.0
  C  C200  1  0.11139000  0.29420000  0.87889000  1.0
  C  C201  1  0.02993000  0.32090000  0.87393000  1.0
  C  C202  1  0.96880000  0.31670000  0.83150000  1.0
  C  C203  1  0.98790000  0.28310000  0.79740000  1.0
  C  C204  1  0.00694000  0.35410000  0.91334000  1.0
  C  C205  1  0.68500000  0.54760000  0.10530000  1.0
  C  C206  1  0.72800000  0.52020000  0.07490000  1.0
  C  C207  1  0.82130000  0.52530000  0.08080000  1.0
  C  C208  1  0.86720000  0.55480000  0.11760000  1.0
  C  C209  1  0.81926000  0.58060000  0.14706000  1.0
  C  C210  1  0.86902000  0.49590000  0.04752000  1.0
  C  C211  1  0.68910000  0.63990000  0.86900000  1.0
  C  C212  1  0.76800000  0.61770000  0.89370000  1.0
  C  C213  1  0.77210000  0.56460000  0.90390000  1.0
  C  C214  1  0.69380000  0.53550000  0.88960000  1.0
  C  C215  1  0.61620000  0.56060000  0.86670000  1.0
  C  C216  1  0.85570000  0.53920000  0.93270000  1.0
  I  I1  1  0.48841000  0.43282000  0.81614000  1.0
  I  I2  1  0.21715000  0.35518000  0.73936000  1.0
  I  I3  1  0.38545000  0.28820000  0.87306000  1.0
  I  I4  1  0.47097000  0.28114000  0.73034000  1.0
  I  I5  1  0.26211000  0.18839000  0.75989000  1.0
  I  I6  1  0.98785000  0.25093000  0.67205000  1.0
  I  I7  1  0.52279000  0.39664000  0.26497000  1.0
  I  I8  1  0.12443000  0.10809000  0.62795000  1.0
  I  I9  1  0.26227000  0.02110000  0.74946000  1.0
  I  I10  1  0.53175000  0.08865000  0.83579000  1.0
  I  I11  1  0.90963000  0.55486000  0.38098000  1.0
  I  I12  1  0.52023000  0.94453000  0.74678000  1.0
  I  I13  1  0.01159000  0.93282000  0.68386000  1.0
  I  I14  1  0.28285000  0.85518000  0.76064000  1.0
  I  I15  1  0.11455000  0.78820000  0.62694000  1.0
  I  I16  1  0.02903000  0.78114000  0.76966000  1.0
  I  I17  1  0.23789000  0.68839000  0.74011000  1.0
  I  I18  1  0.51215000  0.75093000  0.82795000  1.0
  I  I19  1  0.97721000  0.89664000  0.23503000  1.0
  I  I20  1  0.37556000  0.60809000  0.87204000  1.0
  I  I21  1  0.23773000  0.52110000  0.75054000  1.0
  I  I22  1  0.96825000  0.58865000  0.66421000  1.0
  I  I23  1  0.59037000  0.05486000  0.11902000  1.0
  I  I24  1  0.97977000  0.44453000  0.75322000  1.0
  I  I25  1  0.51159000  0.56718000  0.18386000  1.0
  I  I26  1  0.78285000  0.64482000  0.26064000  1.0
  I  I27  1  0.61455000  0.71180000  0.12694000  1.0
  I  I28  1  0.52903000  0.71886000  0.26966000  1.0
  I  I29  1  0.73789000  0.81161000  0.24011000  1.0
  I  I30  1  0.01215000  0.74907000  0.32795000  1.0
  I  I31  1  0.47721000  0.60336000  0.73503000  1.0
  I  I32  1  0.87556000  0.89191000  0.37204000  1.0
  I  I33  1  0.73773000  0.97890000  0.25054000  1.0
  I  I34  1  0.46825000  0.91135000  0.16421000  1.0
  I  I35  1  0.09037000  0.44514000  0.61902000  1.0
  I  I36  1  0.47977000  0.05548000  0.25322000  1.0
  I  I37  1  0.98841000  0.06718000  0.31614000  1.0
  I  I38  1  0.71715000  0.14482000  0.23936000  1.0
  I  I39  1  0.88545000  0.21180000  0.37306000  1.0
  I  I40  1  0.97097000  0.21886000  0.23034000  1.0
  I  I41  1  0.76211000  0.31161000  0.25989000  1.0
  I  I42  1  0.48785000  0.24907000  0.17205000  1.0
  I  I43  1  0.02279000  0.10336000  0.76497000  1.0
  I  I44  1  0.62443000  0.39191000  0.12795000  1.0
  I  I45  1  0.76227000  0.47890000  0.24946000  1.0
  I  I46  1  0.03175000  0.41135000  0.33579000  1.0
  I  I47  1  0.40963000  0.94514000  0.88098000  1.0
  I  I48  1  0.02023000  0.55548000  0.24678000  1.0
  N  N1  1  0.40203000  0.42098000  0.68533000  1.0
  N  N2  1  0.21461000  0.24591000  0.63631000  1.0
  N  N3  1  0.84775000  0.44658000  0.63125000  1.0
  N  N4  1  0.79587000  0.41648000  0.36867000  1.0
  N  N5  1  0.11160000  0.20190000  0.34410000  1.0
  N  N6  1  0.45324000  0.08610000  0.70224000  1.0
  N  N7  1  0.56511000  0.24510000  0.30241000  1.0
  N  N8  1  0.22927000  0.92175000  0.64067000  1.0
  N  N9  1  0.11410000  0.88720000  0.35540000  1.0
  N  N10  1  0.09797000  0.92098000  0.81467000  1.0
  N  N11  1  0.28539000  0.74591000  0.86369000  1.0
  N  N12  1  0.65225000  0.94658000  0.86875000  1.0
  N  N13  1  0.70413000  0.91648000  0.13133000  1.0
  N  N14  1  0.38840000  0.70190000  0.15590000  1.0
  N  N15  1  0.04676000  0.58610000  0.79776000  1.0
  N  N16  1  0.93489000  0.74510000  0.19759000  1.0
  N  N17  1  0.27073000  0.42175000  0.85933000  1.0
  N  N18  1  0.38590000  0.38720000  0.14460000  1.0
  N  N19  1  0.59797000  0.57902000  0.31467000  1.0
  N  N20  1  0.78539000  0.75409000  0.36369000  1.0
  N  N21  1  0.15225000  0.55342000  0.36875000  1.0
  N  N22  1  0.20413000  0.58352000  0.63133000  1.0
  N  N23  1  0.88840000  0.79810000  0.65590000  1.0
  N  N24  1  0.54676000  0.91390000  0.29776000  1.0
  N  N25  1  0.43489000  0.75490000  0.69759000  1.0
  N  N26  1  0.77073000  0.07825000  0.35933000  1.0
  N  N27  1  0.88590000  0.11280000  0.64460000  1.0
  N  N28  1  0.90203000  0.07902000  0.18533000  1.0
  N  N29  1  0.71461000  0.25409000  0.13631000  1.0
  N  N30  1  0.34775000  0.05342000  0.13125000  1.0
  N  N31  1  0.29587000  0.08352000  0.86867000  1.0
  N  N32  1  0.61160000  0.29810000  0.84410000  1.0
  N  N33  1  0.95324000  0.41390000  0.20224000  1.0
  N  N34  1  0.06511000  0.25490000  0.80241000  1.0
  N  N35  1  0.72927000  0.57825000  0.14067000  1.0
  N  N36  1  0.61410000  0.61280000  0.85540000  1.0
  O  O1  1  0.39406000  0.47021000  0.51706000  1.0
  O  O2  1  0.49258000  0.52834000  0.55718000  1.0
  O  O3  1  0.34038000  0.35516000  0.51968000  1.0
  O  O4  1  0.42860000  0.28336000  0.53080000  1.0
  O  O5  1  0.54692000  0.39198000  0.53502000  1.0
  O  O6  1  0.62230000  0.31463000  0.54900000  1.0
  O  O7  1  0.54394000  0.34700000  0.44264000  1.0
  O  O8  1  0.64499000  0.28284000  0.45559000  1.0
  O  O9  1  0.35382000  0.31895000  0.42942000  1.0
  O  O10  1  0.42199000  0.23961000  0.43629000  1.0
  O  O11  1  0.56110000  0.20366000  0.58520000  1.0
  O  O12  1  0.45757000  0.15563000  0.53817000  1.0
  O  O13  1  0.54850000  0.15521000  0.45580000  1.0
  O  O14  1  0.44827000  0.11076000  0.40357000  1.0
  O  O15  1  0.33405000  0.04570000  0.52925000  1.0
  O  O16  1  0.44289000  0.98600000  0.54019000  1.0
  O  O17  1  0.41698000  0.92886000  0.45198000  1.0
  O  O18  1  0.35751000  0.01018000  0.43661000  1.0
  O  O19  1  0.10594000  0.97021000  0.98294000  1.0
  O  O20  1  0.00742000  0.02834000  0.94282000  1.0
  O  O21  1  0.15962000  0.85516000  0.98032000  1.0
  O  O22  1  0.07140000  0.78336000  0.96920000  1.0
  O  O23  1  0.95308000  0.89198000  0.96498000  1.0
  O  O24  1  0.87770000  0.81463000  0.95100000  1.0
  O  O25  1  0.95606000  0.84700000  0.05736000  1.0
  O  O26  1  0.85501000  0.78284000  0.04441000  1.0
  O  O27  1  0.14618000  0.81895000  0.07058000  1.0
  O  O28  1  0.07801000  0.73961000  0.06371000  1.0
  O  O29  1  0.93890000  0.70366000  0.91480000  1.0
  O  O30  1  0.04243000  0.65563000  0.96183000  1.0
  O  O31  1  0.95150000  0.65521000  0.04420000  1.0
  O  O32  1  0.05173000  0.61076000  0.09643000  1.0
  O  O33  1  0.16595000  0.54570000  0.97075000  1.0
  O  O34  1  0.05711000  0.48600000  0.95981000  1.0
  O  O35  1  0.08302000  0.42886000  0.04802000  1.0
  O  O36  1  0.14249000  0.51018000  0.06339000  1.0
  O  O37  1  0.60594000  0.52979000  0.48294000  1.0
  O  O38  1  0.50742000  0.47166000  0.44282000  1.0
  O  O39  1  0.65962000  0.64484000  0.48032000  1.0
  O  O40  1  0.57140000  0.71664000  0.46920000  1.0
  O  O41  1  0.45308000  0.60802000  0.46498000  1.0
  O  O42  1  0.37770000  0.68537000  0.45100000  1.0
  O  O43  1  0.45606000  0.65300000  0.55736000  1.0
  O  O44  1  0.35501000  0.71716000  0.54441000  1.0
  O  O45  1  0.64618000  0.68105000  0.57058000  1.0
  O  O46  1  0.57801000  0.76039000  0.56371000  1.0
  O  O47  1  0.43890000  0.79634000  0.41480000  1.0
  O  O48  1  0.54243000  0.84437000  0.46183000  1.0
  O  O49  1  0.45150000  0.84479000  0.54420000  1.0
  O  O50  1  0.55173000  0.88924000  0.59643000  1.0
  O  O51  1  0.66595000  0.95430000  0.47075000  1.0
  O  O52  1  0.55711000  0.01400000  0.45981000  1.0
  O  O53  1  0.58302000  0.07114000  0.54802000  1.0
  O  O54  1  0.64249000  0.98982000  0.56339000  1.0
  O  O55  1  0.89406000  0.02979000  0.01706000  1.0
  O  O56  1  0.99258000  0.97166000  0.05718000  1.0
  O  O57  1  0.84038000  0.14484000  0.01968000  1.0
  O  O58  1  0.92860000  0.21664000  0.03080000  1.0
  O  O59  1  0.04692000  0.10802000  0.03502000  1.0
  O  O60  1  0.12230000  0.18537000  0.04900000  1.0
  O  O61  1  0.04394000  0.15300000  0.94264000  1.0
  O  O62  1  0.14499000  0.21716000  0.95559000  1.0
  O  O63  1  0.85382000  0.18105000  0.92942000  1.0
  O  O64  1  0.92199000  0.26039000  0.93629000  1.0
  O  O65  1  0.06110000  0.29634000  0.08520000  1.0
  O  O66  1  0.95757000  0.34437000  0.03817000  1.0
  O  O67  1  0.04850000  0.34479000  0.95580000  1.0
  O  O68  1  0.94827000  0.38924000  0.90357000  1.0
  O  O69  1  0.83405000  0.45430000  0.02925000  1.0
  O  O70  1  0.94289000  0.51400000  0.04019000  1.0
  O  O71  1  0.91698000  0.57114000  0.95198000  1.0
  O  O72  1  0.85751000  0.48982000  0.93661000  1.0
