# generated using pymatgen
data_Nd2H9C24(NO6)3
_symmetry_space_group_name_H-M   'P 1'
_cell_length_a   13.90562000
_cell_length_b   13.92646000
_cell_length_c   16.48050000
_cell_angle_alpha   66.50491000
_cell_angle_beta   66.62876000
_cell_angle_gamma   72.41503000
_symmetry_Int_Tables_number   1
_chemical_formula_structural   Nd2H9C24(NO6)3
_chemical_formula_sum   'Nd4 H18 C48 N6 O36'
_cell_volume   2647.22317586
_cell_formula_units_Z   2
loop_
 _symmetry_equiv_pos_site_id
 _symmetry_equiv_pos_as_xyz
  1  'x, y, z'
loop_
 _atom_site_type_symbol
 _atom_site_label
 _atom_site_symmetry_multiplicity
 _atom_site_fract_x
 _atom_site_fract_y
 _atom_site_fract_z
 _atom_site_occupancy
  Nd  Nd0  1  0.94096000  0.65463000  0.50165000  1
  Nd  Nd1  1  0.34765000  0.05984000  0.99805000  1
  Nd  Nd2  1  0.05896000  0.34753000  0.49813000  1
  Nd  Nd3  1  0.65269000  0.94177000  0.00194000  1
  H  H4  1  0.73880000  0.84115000  0.73721000  1
  H  H5  1  0.40166000  0.95562000  0.78413000  1
  H  H6  1  0.59360000  0.85289000  0.54511000  1
  H  H7  1  0.63066000  0.58012000  0.64233000  1
  H  H8  1  0.15934000  0.26219000  0.76264000  1
  H  H9  1  0.04257000  0.59833000  0.71603000  1
  H  H10  1  0.14789000  0.40759000  0.95443000  1
  H  H11  1  0.42198000  0.36645000  0.85971000  1
  H  H12  1  0.26122000  0.15968000  0.26300000  1
  H  H13  1  0.59777000  0.04336000  0.21708000  1
  H  H14  1  0.40655000  0.14801000  0.45526000  1
  H  H15  1  0.36679000  0.42226000  0.35860000  1
  H  H16  1  0.84086000  0.73904000  0.23744000  1
  H  H17  1  0.95594000  0.40229000  0.28415000  1
  H  H18  1  0.85256000  0.59475000  0.04499000  1
  H  H19  1  0.57792000  0.63286000  0.14058000  1
  H  H20  1  0.75598000  0.24754000  0.74980000  1
  H  H21  1  0.24509000  0.75572000  0.24985000  1
  C  C22  1  0.67709000  0.84158000  0.63576000  1
  C  C23  1  0.66860000  0.85959000  0.71622000  1
  C  C24  1  0.56976000  0.90176000  0.76946000  1
  C  C25  1  0.47896000  0.92387000  0.74319000  1
  C  C26  1  0.48969000  0.90540000  0.66272000  1
  C  C27  1  0.58722000  0.86567000  0.60798000  1
  C  C28  1  0.78042000  0.79516000  0.57866000  1
  C  C29  1  0.56171000  0.92599000  0.85267000  1
  C  C30  1  0.70488000  0.41503000  0.68804000  1
  C  C31  1  0.61951000  0.50020000  0.68915000  1
  C  C32  1  0.81331000  0.43270000  0.62151000  1
  C  C33  1  0.15878000  0.32396000  0.86437000  1
  C  C34  1  0.14061000  0.33202000  0.78401000  1
  C  C35  1  0.09783000  0.43067000  0.73082000  1
  C  C36  1  0.07513000  0.52140000  0.75693000  1
  C  C37  1  0.09409000  0.51103000  0.83707000  1
  C  C38  1  0.13446000  0.41381000  0.89185000  1
  C  C39  1  0.20608000  0.22136000  0.92171000  1
  C  C40  1  0.07410000  0.43912000  0.64726000  1
  C  C41  1  0.58826000  0.29519000  0.81278000  1
  C  C42  1  0.50146000  0.37896000  0.81253000  1
  C  C43  1  0.57400000  0.18594000  0.87944000  1
  C  C44  1  0.32307000  0.15922000  0.36468000  1
  C  C45  1  0.33119000  0.14101000  0.28441000  1
  C  C46  1  0.42979000  0.09801000  0.23161000  1
  C  C47  1  0.52066000  0.07574000  0.25775000  1
  C  C48  1  0.51029000  0.09473000  0.33784000  1
  C  C49  1  0.41295000  0.13490000  0.39251000  1
  C  C50  1  0.22007000  0.20672000  0.42126000  1
  C  C51  1  0.43749000  0.07358000  0.14870000  1
  C  C52  1  0.29409000  0.58800000  0.31202000  1
  C  C53  1  0.37849000  0.50196000  0.31155000  1
  C  C54  1  0.18533000  0.57207000  0.37870000  1
  C  C55  1  0.84107000  0.67761000  0.13580000  1
  C  C56  1  0.85936000  0.66917000  0.21621000  1
  C  C57  1  0.90201000  0.57039000  0.26936000  1
  C  C58  1  0.92409000  0.47973000  0.24330000  1
  C  C59  1  0.90542000  0.49047000  0.16291000  1
  C  C60  1  0.86548000  0.58796000  0.10797000  1
  C  C61  1  0.79322000  0.78059000  0.07922000  1
  C  C62  1  0.92595000  0.56208000  0.35274000  1
  C  C63  1  0.41256000  0.70602000  0.18695000  1
  C  C64  1  0.49829000  0.62122000  0.18778000  1
  C  C65  1  0.42893000  0.81483000  0.12023000  1
  C  C66  1  0.68931000  0.31319000  0.75008000  1
  C  C67  1  0.51920000  0.48007000  0.75099000  1
  C  C68  1  0.31110000  0.68943000  0.24957000  1
  C  C69  1  0.47917000  0.52074000  0.24985000  1
  N  N70  1  0.39497000  0.93035000  0.63316000  1
  N  N71  1  0.06912000  0.60571000  0.86614000  1
  N  N72  1  0.60527000  0.06971000  0.36687000  1
  N  N73  1  0.93029000  0.39553000  0.13407000  1
  N  N74  1  0.42810000  0.56937000  0.75137000  1
  N  N75  1  0.56913000  0.43048000  0.25032000  1
  O  O76  1  0.78494000  0.78670000  0.50233000  1
  O  O77  1  0.86196000  0.75926000  0.60738000  1
  O  O78  1  0.64625000  0.91021000  0.87205000  1
  O  O79  1  0.46978000  0.96292000  0.90045000  1
  O  O80  1  0.30817000  0.96195000  0.68482000  1
  O  O81  1  0.40899000  0.91888000  0.55808000  1
  O  O82  1  0.88244000  0.35203000  0.60705000  1
  O  O83  1  0.82945000  0.52865000  0.58331000  1
  O  O84  1  0.33809000  0.54732000  0.79944000  1
  O  O85  1  0.21431000  0.21694000  0.99803000  1
  O  O86  1  0.24323000  0.14013000  0.89265000  1
  O  O87  1  0.09069000  0.35493000  0.62747000  1
  O  O88  1  0.03708000  0.53120000  0.59953000  1
  O  O89  1  0.03729000  0.69238000  0.81430000  1
  O  O90  1  0.08100000  0.59162000  0.94112000  1
  O  O91  1  0.65638000  0.11881000  0.89289000  1
  O  O92  1  0.47925000  0.16607000  0.91919000  1
  O  O93  1  0.44791000  0.66020000  0.70359000  1
  O  O94  1  0.21449000  0.21273000  0.49879000  1
  O  O95  1  0.13983000  0.24602000  0.39057000  1
  O  O96  1  0.35305000  0.09097000  0.12871000  1
  O  O97  1  0.52911000  0.03481000  0.10189000  1
  O  O98  1  0.69179000  0.03795000  0.31500000  1
  O  O99  1  0.59168000  0.08134000  0.44179000  1
  O  O100  1  0.11763000  0.65363000  0.39264000  1
  O  O101  1  0.16685000  0.47683000  0.41775000  1
  O  O102  1  0.65963000  0.45116000  0.20224000  1
  O  O103  1  0.78709000  0.78646000  0.00161000  1
  O  O104  1  0.75361000  0.86046000  0.11011000  1
  O  O105  1  0.91060000  0.64643000  0.37192000  1
  O  O106  1  0.96189000  0.46994000  0.40111000  1
  O  O107  1  0.96188000  0.30893000  0.18615000  1
  O  O108  1  0.91867000  0.40923000  0.05909000  1
  O  O109  1  0.34725000  0.88371000  0.10752000  1
  O  O110  1  0.52433000  0.83255000  0.07980000  1
  O  O111  1  0.54782000  0.34029000  0.29883000  1
