# generated using pymatgen
data_H28C47(N4O)2
_symmetry_space_group_name_H-M   'P 1'
_cell_length_a   17.15330000
_cell_length_b   27.93402500
_cell_length_c   27.93400000
_cell_angle_alpha   119.99991118
_cell_angle_beta   90.00000000
_cell_angle_gamma   90.00000000
_symmetry_Int_Tables_number   1
_chemical_formula_structural   H28C47(N4O)2
_chemical_formula_sum   'H84 C141 N24 O6'
_cell_volume   11591.65241213
_cell_formula_units_Z   3
loop_
 _symmetry_equiv_pos_site_id
 _symmetry_equiv_pos_as_xyz
  1  'x, y, z'
loop_
 _atom_site_type_symbol
 _atom_site_label
 _atom_site_symmetry_multiplicity
 _atom_site_fract_x
 _atom_site_fract_y
 _atom_site_fract_z
 _atom_site_occupancy
  C  1  1  0.01635100  0.51850850  0.50472150  1
  C  2  1  0.99952700  0.55772450  0.55963750  1
  C  3  1  0.94330100  0.53695350  0.57999150  1
  C  4  1  0.92152700  0.48384450  0.53877050  1
  C  5  1  0.86395700  0.45518500  0.55143500  1
  C  6  1  0.82861700  0.47983150  0.60495850  1
  C  7  1  0.85293100  0.53406250  0.64486650  1
  C  8  1  0.90972300  0.56261450  0.63287150  1
  C  9  1  0.03530300  0.60990450  0.58642750  1
  C  10  1  0.08849500  0.62348000  0.55695500  1
  C  11  1  0.10730100  0.58569050  0.50084550  1
  C  12  1  0.07034100  0.53271650  0.47515350  1
  C  13  1  0.01642100  0.41639150  0.47018150  1
  C  14  1  0.99953300  0.37715100  0.41528500  1
  C  15  1  0.94319700  0.39788450  0.39496750  1
  C  16  1  0.92142900  0.45099800  0.43618900  1
  C  17  1  0.90961300  0.37222850  0.34208850  1
  C  18  1  0.85283700  0.40079050  0.33009150  1
  C  19  1  0.82857500  0.45503900  0.36998800  1
  C  20  1  0.86393500  0.47969000  0.42350500  1
  C  21  1  0.07041700  0.40219250  0.49975150  1
  C  22  1  0.10734300  0.34921050  0.47407750  1
  C  23  1  0.08844300  0.31137650  0.41799750  1
  C  24  1  0.03521700  0.32493750  0.38852850  1
  C  37  1  0.96846300  0.46743700  0.48746200  1
  C  38  1  0.77086700  0.48192000  0.35615100  1
  C  39  1  0.15760100  0.33244300  0.50270300  1
  C  40  1  0.15748500  0.60249800  0.47221500  1
  C  41  1  0.77079900  0.45299850  0.61876850  1
  C  46  1  0.68307900  0.93368950  0.43642850  1
  C  47  1  0.66615100  0.94931700  0.39717000  1
  C  48  1  0.60984700  0.99039100  0.41791300  1
  C  49  1  0.58814700  0.00233450  0.47105350  1
  C  50  1  0.53059700  0.04367250  0.49972150  1
  C  51  1  0.49520900  0.07251900  0.47505400  1
  C  52  1  0.51944900  0.05814300  0.42079600  1
  C  53  1  0.57621900  0.01757900  0.39223600  1
  C  54  1  0.70179900  0.92383050  0.34494350  1
  C  55  1  0.75503100  0.88080700  0.33138800  1
  C  56  1  0.77391900  0.86256050  0.36922350  1
  C  57  1  0.73700500  0.88988000  0.42221100  1
  C  58  1  0.68305700  0.00124450  0.53853950  1
  C  59  1  0.66617300  0.98556050  0.57775950  1
  C  60  1  0.60992100  0.94445400  0.55698700  1
  C  61  1  0.58813100  0.93259650  0.50389150  1
  C  62  1  0.57637700  0.91719750  0.58262050  1
  C  63  1  0.51960100  0.87663950  0.55405250  1
  C  64  1  0.49529100  0.86233350  0.49982550  1
  C  65  1  0.53062500  0.89122900  0.47519400  1
  C  66  1  0.73701100  0.04504200  0.55277100  1
  C  67  1  0.77396500  0.07231450  0.60574750  1
  C  68  1  0.75514700  0.05398450  0.64352950  1
  C  69  1  0.70190900  0.01096100  0.62995400  1
  C  82  1  0.63512300  0.96746850  0.48747750  1
  C  83  1  0.43749500  0.82167700  0.47297400  1
  C  84  1  0.82411850  0.11777250  0.62258550  1
  C  85  1  0.82417250  0.81716300  0.35245400  1
  C  86  1  0.43748300  0.11322250  0.50192550  1
  C  91  1  0.34973300  0.45021100  0.02129200  1
  C  92  1  0.33291900  0.39529350  0.00559250  1
  C  93  1  0.27660900  0.37496000  0.96451700  1
  C  94  1  0.25482300  0.41618500  0.95263800  1
  C  95  1  0.19723100  0.40352650  0.91132650  1
  C  96  1  0.16187900  0.35000550  0.88246050  1
  C  97  1  0.18620100  0.31009650  0.89677750  1
  C  98  1  0.24301300  0.32208700  0.93731300  1
  C  99  1  0.36860300  0.36853850  0.03104750  1
  C  100  1  0.42185900  0.39799800  0.07405700  1
  C  101  1  0.44072100  0.45409000  0.09233100  1
  C  102  1  0.40375100  0.47977400  0.06504500  1
  C  103  1  0.34967900  0.48475150  0.95370050  1
  C  104  1  0.33285500  0.53967300  0.96941800  1
  C  105  1  0.27655700  0.55999200  0.01049300  1
  C  106  1  0.25481700  0.51877200  0.02239300  1
  C  107  1  0.24295500  0.61286600  0.03771300  1
  C  108  1  0.18616100  0.62484850  0.07825950  1
  C  109  1  0.16188500  0.58494050  0.09258950  1
  C  110  1  0.19725500  0.53142400  0.06371900  1
  C  111  1  0.40369300  0.45519850  0.90994150  1
  C  112  1  0.44062700  0.48089400  0.88265200  1
  C  113  1  0.42177300  0.53699200  0.90095200  1
  C  114  1  0.36853300  0.56644250  0.94397250  1
  C  127  1  0.30179500  0.46748000  0.98750500  1
  C  128  1  0.10412300  0.59875400  0.13326700  1
  C  129  1  0.49082300  0.45227050  0.83721950  1
  C  130  1  0.49099900  0.48271000  0.13771300  1
  C  131  1  0.10407100  0.33619600  0.84181100  1
  C  136  1  0.69681100  0.46769700  0.27253200  1
  C  137  1  0.63224300  0.50412950  0.28911050  1
  C  138  1  0.57937700  0.50338950  0.24913450  1
  C  139  1  0.59039900  0.46621650  0.19192150  1
  C  140  1  0.65390100  0.42924650  0.17610150  1
  C  141  1  0.70631700  0.43032750  0.21545650  1
  C  143  1  0.50238100  0.57265100  0.32215400  1
  C  144  1  0.55379500  0.57298700  0.36155400  1
  C  150  1  0.50838300  0.58005450  0.44361950  1
  C  156  1  0.36320500  0.75246550  0.48738450  1
  C  157  1  0.29887300  0.73239150  0.45074650  1
  C  158  1  0.24599300  0.69316650  0.45149350  1
  C  159  1  0.25677100  0.67341950  0.48892850  1
  C  160  1  0.32028700  0.69452700  0.52587400  1
  C  161  1  0.37267900  0.73281800  0.52480100  1
  C  163  1  0.16941700  0.69651850  0.38184550  1
  C  164  1  0.22084900  0.73556750  0.38149250  1
  C  170  1  0.17552100  0.81032950  0.37398250  1
  C  176  1  0.03004500  0.68236650  0.20265550  1
  C  177  1  0.96546250  0.66578350  0.22249850  1
  C  178  1  0.91258650  0.70575750  0.26172850  1
  C  179  1  0.92360450  0.76296950  0.28176850  1
  C  180  1  0.98712053  0.77879450  0.26063350  1
  C  181  1  0.03954700  0.73944350  0.22236450  1
  C  183  1  0.83559250  0.63273150  0.25795850  1
  C  184  1  0.88702250  0.59333450  0.21890350  1
  C  190  1  0.84163850  0.51126300  0.14389800  1
  C  196  1  0.69651500  0.46742200  0.70239700  1
  C  197  1  0.63217900  0.43078850  0.68584150  1
  C  198  1  0.57929900  0.43154450  0.72581850  1
  C  199  1  0.59008300  0.46898400  0.78299900  1
  C  200  1  0.65360100  0.50592800  0.79883000  1
  C  201  1  0.70599100  0.50484700  0.75946300  1
  C  203  1  0.50272300  0.36188950  0.65282350  1
  C  204  1  0.55415500  0.36152850  0.61341950  1
  C  210  1  0.50883300  0.35400300  0.53113700  1
  C  216  1  0.36342100  0.18260750  0.48768650  1
  C  217  1  0.29884500  0.20246150  0.52411350  1
  C  218  1  0.24598700  0.24170150  0.52337250  1
  C  219  1  0.25701700  0.26173700  0.48619700  1
  C  220  1  0.32051900  0.24058950  0.44923450  1
  C  221  1  0.37293500  0.20231350  0.45031550  1
  C  223  1  0.16898700  0.23794800  0.59263600  1
  C  224  1  0.22039300  0.19888200  0.59297500  1
  C  230  1  0.17499100  0.12388750  0.60004850  1
  C  236  1  0.02980500  0.25257050  0.77258750  1
  C  237  1  0.96549050  0.26913150  0.75249450  1
  C  238  1  0.91262050  0.22915950  0.71325850  1
  C  239  1  0.92339450  0.17197850  0.69351750  1
  C  240  1  0.98689253  0.15614100  0.71464200  1
  C  241  1  0.03927300  0.19550300  0.75294200  1
  C  243  1  0.83607650  0.30215750  0.71658450  1
  C  244  1  0.88749450  0.34156100  0.75564400  1
  C  250  1  0.84215650  0.42383950  0.83039150  1
  H  25  1  0.11191900  0.27249500  0.39787500  1
  H  26  1  0.02169700  0.29640350  0.34862150  1
  H  27  1  0.92577900  0.33333667  0.31243567  1
  H  28  1  0.82922300  0.38080700  0.29126200  1
  H  29  1  0.84833100  0.51866900  0.45342600  1
  H  30  1  0.08162100  0.43032250  0.54026350  1
  H  31  1  0.84828100  0.41623000  0.52149500  1
  H  32  1  0.82930700  0.55405650  0.68369350  1
  H  33  1  0.92586900  0.60151250  0.66251450  1
  H  34  1  0.08152900  0.50459600  0.43463700  1
  H  35  1  0.02192500  0.63838750  0.62637850  1
  H  36  1  0.11204700  0.66233700  0.57711400  1
  H  42  1  0.15513500  0.35121000  0.54367100  1
  H  43  1  0.74754700  0.51684900  0.38551600  1
  H  44  1  0.15501900  0.58373450  0.43124750  1
  H  45  1  0.74746300  0.41808250  0.58939650  1
  H  70  1  0.77867100  0.07268900  0.68239600  1
  H  71  1  0.68853700  0.99948050  0.65842550  1
  H  72  1  0.59254300  0.92642650  0.62150950  1
  H  73  1  0.49599700  0.85778750  0.57403050  1
  H  74  1  0.51497900  0.88220750  0.43623450  1
  H  75  1  0.74817500  0.05746800  0.52467100  1
  H  76  1  0.51498900  0.05273500  0.53870100  1
  H  77  1  0.49579900  0.07696100  0.40079500  1
  H  78  1  0.59233900  0.00830800  0.35332700  1
  H  79  1  0.74823900  0.87752550  0.45035650  1
  H  80  1  0.68827500  0.93519700  0.31640600  1
  H  81  1  0.77846700  0.86202250  0.29249350  1
  H  87  1  0.82168250  0.13996450  0.60380950  1
  H  88  1  0.41420500  0.81610800  0.43803700  1
  H  89  1  0.82179850  0.79501500  0.37127900  1
  H  90  1  0.41416300  0.11878950  0.53685450  1
  H  115  1  0.44528100  0.55714450  0.88223450  1
  H  116  1  0.35513700  0.60639150  0.95544150  1
  H  117  1  0.25909700  0.64251650  0.02846950  1
  H  118  1  0.16252700  0.66367150  0.09709650  1
  H  119  1  0.18161900  0.50148600  0.07274500  1
  H  120  1  0.41489100  0.41468400  0.89754300  1
  H  121  1  0.18156700  0.43346250  0.90230550  1
  H  122  1  0.16257900  0.27127100  0.87794600  1
  H  123  1  0.25919100  0.29243600  0.94654900  1
  H  124  1  0.41496100  0.52028450  0.07742150  1
  H  125  1  0.35522500  0.32858850  0.01958750  1
  H  126  1  0.44541500  0.37784950  0.09276450  1
  H  132  1  0.48838500  0.41130350  0.81502550  1
  H  133  1  0.08083300  0.56938450  0.13883950  1
  H  134  1  0.48869300  0.52368900  0.15982600  1
  H  135  1  0.08078100  0.36555850  0.83623150  1
  H  146  1  0.45445700  0.59764050  0.33400150  1
  H  147  1  0.75073700  0.40207800  0.20194500  1
  H  148  1  0.66175100  0.40012300  0.13540400  1
  H  151  1  0.50041100  0.61050850  0.48717550  1
  H  152  1  0.54663100  0.54749100  0.44093800  1
  H  153  1  0.45135500  0.56252100  0.42619100  1
  H  166  1  0.12165500  0.68322350  0.35670250  1
  H  167  1  0.41709100  0.74757250  0.55305350  1
  H  168  1  0.32807500  0.68299900  0.55503600  1
  H  171  1  0.16772700  0.82327100  0.34339200  1
  H  172  1  0.21360100  0.84032800  0.40659300  1
  H  173  1  0.11839500  0.81044250  0.39139750  1
  H  186  1  0.78766500  0.62087750  0.27109250  1
  H  187  1  0.08397100  0.75295650  0.20763750  1
  H  188  1  0.99497253  0.81949300  0.27221200  1
  H  191  1  0.83366850  0.46770700  0.13079400  1
  H  192  1  0.87989850  0.51394750  0.11402350  1
  H  193  1  0.78461100  0.52868400  0.14377700  1
  H  206  1  0.45495900  0.33674950  0.64098450  1
  H  207  1  0.75041100  0.53309300  0.77295400  1
  H  208  1  0.66139100  0.53509200  0.83951800  1
  H  211  1  0.50103700  0.32340700  0.48760700  1
  H  212  1  0.54691700  0.38660700  0.53374200  1
  H  213  1  0.45170900  0.37142300  0.54843700  1
  H  226  1  0.12105900  0.25109100  0.61762500  1
  H  227  1  0.41735900  0.18757700  0.42207200  1
  H  228  1  0.32839100  0.25216850  0.42011550  1
  H  231  1  0.16701700  0.11079000  0.63050500  1
  H  232  1  0.21324100  0.09400450  0.56748950  1
  H  233  1  0.11796500  0.12377450  0.58250950  1
  H  246  1  0.78832500  0.31400300  0.70327700  1
  H  247  1  0.08367300  0.18200850  0.76770750  1
  H  248  1  0.99466853  0.11545100  0.70311800  1
  H  251  1  0.83436850  0.46737100  0.84333000  1
  H  252  1  0.88021250  0.42123100  0.86040200  1
  H  253  1  0.78502500  0.40653800  0.83049700  1
  N  142  1  0.51661300  0.53769250  0.26774150  1
  N  145  1  0.61676500  0.53900200  0.34345300  1
  N  154  1  0.74641300  0.46150750  0.30596650  1
  N  155  1  0.53842100  0.45653900  0.15244000  1
  N  162  1  0.18342700  0.67727500  0.41700100  1
  N  165  1  0.28361100  0.75165250  0.41566950  1
  N  174  1  0.41290500  0.79198600  0.49344300  1
  N  175  1  0.20489300  0.64340300  0.49839000  1
  N  182  1  0.84981650  0.68714350  0.27741450  1
  N  185  1  0.94999650  0.61143950  0.20302650  1
  N  194  1  0.07965700  0.64893450  0.16304250  1
  N  195  1  0.87163250  0.80245550  0.31158050  1
  N  202  1  0.51673700  0.39705400  0.70722500  1
  N  205  1  0.61692100  0.39570500  0.63150700  1
  N  214  1  0.74622500  0.47346850  0.66893050  1
  N  215  1  0.53820700  0.47845050  0.82247950  1
  N  222  1  0.18321700  0.25739650  0.55767550  1
  N  225  1  0.28336700  0.18299450  0.55898950  1
  N  234  1  0.41302700  0.14299100  0.48150700  1
  N  235  1  0.20507300  0.29157450  0.47653350  1
  N  242  1  0.85007850  0.24775900  0.69735000  1
  N  245  1  0.95024050  0.32346800  0.77174700  1
  N  254  1  0.07949900  0.28603200  0.81211700  1
  N  255  1  0.87151450  0.13250200  0.66349400  1
  O  149  1  0.54212100  0.60761300  0.41676800  1
  O  169  1  0.20938700  0.75595850  0.34667950  1
  O  189  1  0.87535050  0.53811950  0.19831450  1
  O  209  1  0.54269100  0.32670900  0.55821700  1
  O  229  1  0.20872300  0.17829800  0.62760500  1
  O  249  1  0.87603850  0.39676250  0.77602750  1
