# generated using pymatgen
data_Co6H12C62N6(O7F12)3
_symmetry_space_group_name_H-M   'P 1'
_cell_length_a   16.45346781
_cell_length_b   20.01646000
_cell_length_c   21.89508815
_cell_angle_alpha   65.19317732
_cell_angle_beta   69.72964859
_cell_angle_gamma   70.77757533
_symmetry_Int_Tables_number   1
_chemical_formula_structural   Co6H12C62N6(O7F12)3
_chemical_formula_sum   'Co12 H24 C124 N12 O42 F72'
_cell_volume   5995.30967120
_cell_formula_units_Z   2
loop_
 _symmetry_equiv_pos_site_id
 _symmetry_equiv_pos_as_xyz
  1  'x, y, z'
loop_
 _atom_site_type_symbol
 _atom_site_label
 _atom_site_symmetry_multiplicity
 _atom_site_fract_x
 _atom_site_fract_y
 _atom_site_fract_z
 _atom_site_occupancy
  Co  Co0  1  0.94821000  0.21996000  0.78274000  1
  Co  Co1  1  0.95969000  0.70940000  0.26769000  1
  Co  Co2  1  0.08779000  0.86286000  0.94163000  1
  Co  Co3  1  0.08145000  0.35491000  0.44175000  1
  Co  Co4  1  0.00596000  0.02961000  0.83742000  1
  Co  Co5  1  0.01322000  0.51977000  0.32864000  1
  Co  Co6  1  0.03662000  0.21357000  0.88312000  1
  Co  Co7  1  0.08052000  0.02561000  0.94344000  1
  Co  Co8  1  0.96417000  0.38020000  0.77864000  1
  Co  Co9  1  0.02623000  0.70856000  0.37791000  1
  Co  Co10  1  0.07636000  0.51997000  0.43779000  1
  Co  Co11  1  0.95154000  0.87396000  0.27179000  1
  H  H12  1  0.28143000  0.25812000  0.42801000  1
  H  H13  1  0.34141000  0.36617000  0.25091000  1
  H  H14  1  0.29398000  0.77033000  0.91831000  1
  H  H15  1  0.58905000  0.59122000  0.76218000  1
  H  H16  1  0.42423000  0.76364000  0.71986000  1
  H  H17  1  0.53752000  0.99757000  0.31650000  1
  H  H18  1  0.74065000  0.88366000  0.14069000  1
  H  H19  1  0.29525000  0.99376000  0.13697000  1
  H  H20  1  0.20017000  0.84403000  0.38588000  1
  H  H21  1  0.21238000  0.24129000  0.16434000  1
  H  H22  1  0.69984000  0.35000000  0.71582000  1
  H  H23  1  0.25624000  0.39898000  0.66151000  1
  H  H24  1  0.25496000  0.44622000  0.86683000  1
  H  H25  1  0.10951000  0.86401000  0.70493000  1
  H  H26  1  0.73014000  0.83998000  0.51813000  1
  H  H27  1  0.85603000  0.06494000  0.43768000  1
  H  H28  1  0.54670000  0.34667000  0.39313000  1
  H  H29  1  0.84778000  0.32517000  0.53761000  1
  H  H30  1  0.70381000  0.30279000  0.38415000  1
  H  H31  1  0.86457000  0.57069000  0.95899000  1
  H  H32  1  0.76028000  0.35509000  0.97916000  1
  H  H33  1  0.55311000  0.85592000  0.90160000  1
  H  H34  1  0.85039000  0.82625000  0.04467000  1
  H  H35  1  0.71156000  0.79955000  0.89023000  1
  C  C36  1  0.99199000  0.35022000  0.64945000  1
  C  C37  1  0.79168000  0.35880000  0.79356000  1
  C  C38  1  0.69835000  0.49479000  0.76105000  1
  C  C39  1  0.36073000  0.90824000  0.72050000  1
  C  C40  1  0.02421000  0.88710000  0.07475000  1
  C  C41  1  0.01301000  0.38639000  0.57227000  1
  C  C42  1  0.79905000  0.83984000  0.25447000  1
  C  C43  1  0.31393000  0.33932000  0.23103000  1
  C  C44  1  0.46617000  0.25670000  0.20568000  1
  C  C45  1  0.61638000  0.54106000  0.74796000  1
  C  C46  1  0.72234000  0.41979000  0.75884000  1
  C  C47  1  0.30917000  0.85499000  0.72569000  1
  C  C48  1  0.15804000  0.90825000  0.78696000  1
  C  C49  1  0.36696000  0.27610000  0.21200000  1
  C  C50  1  0.16279000  0.39354000  0.28777000  1
  C  C51  1  0.58329000  0.97385000  0.27759000  1
  C  C52  1  0.64546000  0.90607000  0.29789000  1
  C  C53  1  0.64557000  0.86781000  0.37391000  1
  C  C54  1  0.35587000  0.78559000  0.71603000  1
  C  C55  1  0.70757000  0.87645000  0.24693000  1
  C  C56  1  0.22276000  0.36211000  0.23318000  1
  C  C57  1  0.21619000  0.87761000  0.73138000  1
  C  C58  1  0.57175000  0.00573000  0.20987000  1
  C  C59  1  0.69502000  0.90754000  0.17940000  1
  C  C60  1  0.57021000  0.52315000  0.71612000  1
  C  C61  1  0.67862000  0.40388000  0.72335000  1
  C  C62  1  0.63192000  0.97485000  0.15921000  1
  C  C63  1  0.76231000  0.52945000  0.76856000  1
  C  C64  1  0.68695000  0.60047000  0.99080000  1
  C  C65  1  0.56550000  0.70516000  0.97016000  1
  C  C66  1  0.67014000  0.70603000  0.01915000  1
  C  C67  1  0.68053000  0.09586000  0.49074000  1
  C  C68  1  0.66841000  0.20503000  0.51193000  1
  C  C69  1  0.55779000  0.19876000  0.47179000  1
  C  C70  1  0.35245000  0.66247000  0.71208000  1
  C  C71  1  0.33065000  0.53955000  0.74757000  1
  C  C72  1  0.47411000  0.55724000  0.72217000  1
  C  C73  1  0.36242000  0.15206000  0.20452000  1
  C  C74  1  0.33735000  0.03593000  0.21988000  1
  C  C75  1  0.48200000  0.04701000  0.20076000  1
  C  C76  1  0.93861000  0.34873000  0.92640000  1
  C  C77  1  0.91277000  0.89984000  0.91046000  1
  C  C78  1  0.24442000  0.90237000  0.94074000  1
  C  C79  1  0.15256000  0.32728000  0.78089000  1
  C  C80  1  0.88824000  0.83965000  0.42265000  1
  C  C81  1  0.02727000  0.84387000  0.14156000  1
  C  C82  1  0.91103000  0.39560000  0.40242000  1
  C  C83  1  0.23795000  0.39543000  0.43923000  1
  C  C84  1  0.12863000  0.82846000  0.30093000  1
  C  C85  1  0.62500000  0.01040000  0.08442000  1
  C  C86  1  0.27072000  0.96323000  0.19148000  1
  C  C87  1  0.27737000  0.98574000  0.24182000  1
  C  C88  1  0.25128000  0.94270000  0.31299000  1
  C  C89  1  0.22095000  0.87719000  0.33168000  1
  C  C90  1  0.20651000  0.85944000  0.28143000  1
  C  C91  1  0.24225000  0.89696000  0.21069000  1
  C  C92  1  0.25557000  0.86517000  0.15528000  1
  C  C93  1  0.25787000  0.96567000  0.36874000  1
  C  C94  1  0.24076000  0.26806000  0.18362000  1
  C  C95  1  0.32612000  0.23446000  0.19626000  1
  C  C96  1  0.18872000  0.33192000  0.20170000  1
  C  C97  1  0.09343000  0.36085000  0.19572000  1
  C  C98  1  0.60917000  0.45885000  0.69519000  1
  C  C99  1  0.57733000  0.44842000  0.64328000  1
  C  C100  1  0.25728000  0.40927000  0.70602000  1
  C  C101  1  0.22346000  0.36189000  0.77258000  1
  C  C102  1  0.23304000  0.37010000  0.83040000  1
  C  C103  1  0.25253000  0.43711000  0.82211000  1
  C  C104  1  0.27710000  0.48951000  0.75565000  1
  C  C105  1  0.27823000  0.47598000  0.69671000  1
  C  C106  1  0.28924000  0.53689000  0.62533000  1
  C  C107  1  0.22834000  0.30576000  0.89940000  1
  C  C108  1  0.31411000  0.74496000  0.70143000  1
  C  C109  1  0.22992000  0.78122000  0.68541000  1
  C  C110  1  0.17906000  0.84406000  0.70568000  1
  C  C111  1  0.19591000  0.75660000  0.64395000  1
  C  C112  1  0.75819000  0.88793000  0.50414000  1
  C  C113  1  0.84798000  0.88527000  0.46869000  1
  C  C114  1  0.88468000  0.94608000  0.45528000  1
  C  C115  1  0.82796000  0.01590000  0.45618000  1
  C  C116  1  0.73598000  0.02201000  0.48401000  1
  C  C117  1  0.70214000  0.95511000  0.51480000  1
  C  C118  1  0.60630000  0.95500000  0.55477000  1
  C  C119  1  0.98368000  0.93784000  0.44018000  1
  C  C120  1  0.33880000  0.27726000  0.42239000  1
  C  C121  1  0.32898000  0.35322000  0.41405000  1
  C  C122  1  0.40627000  0.37997000  0.39747000  1
  C  C123  1  0.48776000  0.32729000  0.40298000  1
  C  C124  1  0.49125000  0.24894000  0.42997000  1
  C  C125  1  0.41862000  0.22418000  0.43248000  1
  C  C126  1  0.42404000  0.14170000  0.44861000  1
  C  C127  1  0.40285000  0.46354000  0.37392000  1
  C  C128  1  0.81308000  0.32228000  0.50514000  1
  C  C129  1  0.82953000  0.36627000  0.43423000  1
  C  C130  1  0.78107000  0.36583000  0.39238000  1
  C  C131  1  0.73190000  0.31021000  0.41832000  1
  C  C132  1  0.72028000  0.26246000  0.48792000  1
  C  C133  1  0.75709000  0.27105000  0.53291000  1
  C  C134  1  0.74001000  0.22360000  0.60942000  1
  C  C135  1  0.78123000  0.42459000  0.32050000  1
  C  C136  1  0.83999000  0.52252000  0.96789000  1
  C  C137  1  0.74834000  0.52958000  0.97924000  1
  C  C138  1  0.71823000  0.46424000  0.99275000  1
  C  C139  1  0.78182000  0.39948000  0.98143000  1
  C  C140  1  0.87325000  0.39462000  0.96861000  1
  C  C141  1  0.89928000  0.45248000  0.97321000  1
  C  C142  1  0.99174000  0.44143000  0.97978000  1
  C  C143  1  0.62046000  0.46372000  0.01453000  1
  C  C144  1  0.49547000  0.83704000  0.90742000  1
  C  C145  1  0.50172000  0.75903000  0.92644000  1
  C  C146  1  0.43169000  0.73667000  0.92192000  1
  C  C147  1  0.34988000  0.78878000  0.91663000  1
  C  C148  1  0.33723000  0.86256000  0.91570000  1
  C  C149  1  0.41261000  0.88873000  0.90575000  1
  C  C150  1  0.40540000  0.97046000  0.89434000  1
  C  C151  1  0.44379000  0.65882000  0.92112000  1
  C  C152  1  0.81756000  0.82189000  0.01174000  1
  C  C153  1  0.83554000  0.86488000  0.94059000  1
  C  C154  1  0.79216000  0.86076000  0.89718000  1
  C  C155  1  0.73923000  0.80761000  0.92427000  1
  C  C156  1  0.72407000  0.76234000  0.99468000  1
  C  C157  1  0.76187000  0.77032000  0.03945000  1
  C  C158  1  0.74551000  0.72218000  0.11583000  1
  C  C159  1  0.80451000  0.91132000  0.82141000  1
  N  N160  1  0.44183000  0.63342000  0.70615000  1
  N  N161  1  0.45101000  0.12018000  0.19822000  1
  N  N162  1  0.61663000  0.63878000  0.95994000  1
  N  N163  1  0.58766000  0.73146000  0.00874000  1
  N  N164  1  0.71285000  0.63516000  0.02056000  1
  N  N165  1  0.71246000  0.13448000  0.51254000  1
  N  N166  1  0.58440000  0.22911000  0.50454000  1
  N  N167  1  0.60654000  0.13095000  0.46456000  1
  N  N168  1  0.29733000  0.61490000  0.73244000  1
  N  N169  1  0.41747000  0.51123000  0.74600000  1
  N  N170  1  0.30557000  0.10858000  0.21735000  1
  N  N171  1  0.42529000  0.00704000  0.20825000  1
  O  O172  1  0.99105000  0.12229000  0.87677000  1
  O  O173  1  0.01621000  0.27586000  0.68080000  1
  O  O174  1  0.04765000  0.98146000  0.90865000  1
  O  O175  1  0.85673000  0.88291000  0.22559000  1
  O  O176  1  0.02618000  0.77026000  0.16598000  1
  O  O177  1  0.04435000  0.47397000  0.40430000  1
  O  O178  1  0.99043000  0.61487000  0.36729000  1
  O  O179  1  0.81733000  0.29021000  0.78688000  1
  O  O180  1  0.17759000  0.87344000  0.84755000  1
  O  O181  1  0.00449000  0.86028000  0.03721000  1
  O  O182  1  0.17506000  0.35480000  0.35056000  1
  O  O183  1  0.99577000  0.35706000  0.53555000  1
  O  O184  1  0.10994000  0.97919000  0.77002000  1
  O  O185  1  0.82601000  0.76515000  0.27376000  1
  O  O186  1  0.12615000  0.46721000  0.26960000  1
  O  O187  1  0.94641000  0.12514000  0.76908000  1
  O  O188  1  0.96746000  0.61333000  0.25222000  1
  O  O189  1  0.83361000  0.37625000  0.82391000  1
  O  O190  1  0.98216000  0.26236000  0.81918000  1
  O  O191  1  0.09236000  0.11888000  0.95285000  1
  O  O192  1  0.99228000  0.85626000  0.90403000  1
  O  O193  1  0.90179000  0.97383000  0.88141000  1
  O  O194  1  0.98282000  0.38366000  0.86518000  1
  O  O195  1  0.95015000  0.27459000  0.94790000  1
  O  O196  1  0.94266000  0.39264000  0.68617000  1
  O  O197  1  0.18644000  0.86092000  0.98076000  1
  O  O198  1  0.21516000  0.97584000  0.91135000  1
  O  O199  1  0.09875000  0.36461000  0.73896000  1
  O  O200  1  0.15142000  0.25610000  0.82243000  1
  O  O201  1  0.03502000  0.95876000  0.04917000  1
  O  O202  1  0.97703000  0.75533000  0.31044000  1
  O  O203  1  0.08518000  0.61479000  0.44654000  1
  O  O204  1  0.98746000  0.34732000  0.40338000  1
  O  O205  1  0.90732000  0.46748000  0.36408000  1
  O  O206  1  0.86188000  0.86421000  0.36549000  1
  O  O207  1  0.94304000  0.77231000  0.44220000  1
  O  O208  1  0.04153000  0.87276000  0.17968000  1
  O  O209  1  0.17843000  0.35599000  0.48077000  1
  O  O210  1  0.21069000  0.46881000  0.40845000  1
  O  O211  1  0.05007000  0.87270000  0.31083000  1
  O  O212  1  0.13643000  0.75519000  0.32126000  1
  O  O213  1  0.02739000  0.45703000  0.54400000  1
  F  F214  1  0.39811000  0.94331000  0.65136000  1
  F  F215  1  0.48751000  0.19303000  0.26078000  1
  F  F216  1  0.35173000  0.13120000  0.43778000  1
  F  F217  1  0.37712000  0.65473000  0.89867000  1
  F  F218  1  0.67839000  0.90965000  0.39271000  1
  F  F219  1  0.51244000  0.24489000  0.14364000  1
  F  F220  1  0.55962000  0.86472000  0.41332000  1
  F  F221  1  0.69589000  0.79492000  0.38865000  1
  F  F222  1  0.59970000  0.08810000  0.06548000  1
  F  F223  1  0.70577000  0.99303000  0.03997000  1
  F  F224  1  0.49356000  0.31476000  0.20638000  1
  F  F225  1  0.30763000  0.96316000  0.74858000  1
  F  F226  1  0.42790000  0.86859000  0.75484000  1
  F  F227  1  0.56285000  0.98381000  0.07669000  1
  F  F228  1  0.20382000  0.91453000  0.10954000  1
  F  F229  1  0.23432000  0.79527000  0.18262000  1
  F  F230  1  0.34364000  0.85738000  0.11888000  1
  F  F231  1  0.21670000  0.04065000  0.35822000  1
  F  F232  1  0.34612000  0.95555000  0.36626000  1
  F  F233  1  0.21730000  0.92344000  0.43450000  1
  F  F234  1  0.08171000  0.34352000  0.14483000  1
  F  F235  1  0.06944000  0.43836000  0.17842000  1
  F  F236  1  0.03851000  0.32790000  0.25845000  1
  F  F237  1  0.73834000  0.60743000  0.74342000  1
  F  F238  1  0.84747000  0.50924000  0.73114000  1
  F  F239  1  0.76111000  0.50714000  0.83758000  1
  F  F240  1  0.54311000  0.51736000  0.59867000  1
  F  F241  1  0.51281000  0.40618000  0.67783000  1
  F  F242  1  0.64709000  0.41118000  0.60363000  1
  F  F243  1  0.29962000  0.50947000  0.57398000  1
  F  F244  1  0.36283000  0.56560000  0.60888000  1
  F  F245  1  0.21438000  0.59440000  0.62461000  1
  F  F246  1  0.28040000  0.23948000  0.88904000  1
  F  F247  1  0.14183000  0.29745000  0.93009000  1
  F  F248  1  0.25880000  0.31806000  0.94454000  1
  F  F249  1  0.14379000  0.70505000  0.68860000  1
  F  F250  1  0.26557000  0.72482000  0.59995000  1
  F  F251  1  0.14497000  0.81789000  0.60351000  1
  F  F252  1  0.59714000  0.88314000  0.60011000  1
  F  F253  1  0.55447000  0.97839000  0.50862000  1
  F  F254  1  0.57599000  0.00162000  0.59374000  1
  F  F255  1  0.01550000  0.97678000  0.37089000  1
  F  F256  1  0.02816000  0.86311000  0.45613000  1
  F  F257  1  0.00100000  0.96799000  0.47967000  1
  F  F258  1  0.42611000  0.10205000  0.51734000  1
  F  F259  1  0.49940000  0.11320000  0.40601000  1
  F  F260  1  0.35584000  0.48981000  0.42832000  1
  F  F261  1  0.36231000  0.50252000  0.31924000  1
  F  F262  1  0.48694000  0.47824000  0.35143000  1
  F  F263  1  0.77297000  0.24657000  0.64592000  1
  F  F264  1  0.78047000  0.14897000  0.61731000  1
  F  F265  1  0.64971000  0.22952000  0.63788000  1
  F  F266  1  0.72104000  0.41983000  0.29203000  1
  F  F267  1  0.86463000  0.41465000  0.27674000  1
  F  F268  1  0.75785000  0.49602000  0.32424000  1
  F  F269  1  0.99173000  0.48593000  0.01404000  1
  F  F270  1  0.04843000  0.46102000  0.91458000  1
  F  F271  1  0.02244000  0.36709000  0.01747000  1
  F  F272  1  0.58629000  0.49859000  0.95661000  1
  F  F273  1  0.57455000  0.50003000  0.06212000  1
  F  F274  1  0.60769000  0.39059000  0.04544000  1
  F  F275  1  0.48740000  0.98534000  0.88132000  1
  F  F276  1  0.35152000  0.98729000  0.95274000  1
  F  F277  1  0.37001000  0.01707000  0.83783000  1
  F  F278  1  0.44221000  0.60695000  0.98734000  1
  F  F279  1  0.52368000  0.64090000  0.87623000  1
  F  F280  1  0.78446000  0.74078000  0.15166000  1
  F  F281  1  0.78051000  0.64705000  0.12296000  1
  F  F282  1  0.65525000  0.73214000  0.14565000  1
  F  F283  1  0.89235000  0.89529000  0.78633000  1
  F  F284  1  0.78044000  0.98605000  0.81662000  1
  F  F285  1  0.75268000  0.90154000  0.78894000  1
