# generated using pymatgen
data_AlCuH5C8N4O5
_symmetry_space_group_name_H-M   'P 1'
_cell_length_a   6.78109000
_cell_length_b   8.86036500
_cell_length_c   12.61085500
_cell_angle_alpha   90.07068000
_cell_angle_beta   90.00000000
_cell_angle_gamma   90.00000000
_symmetry_Int_Tables_number   1
_chemical_formula_structural   AlCuH5C8N4O5
_chemical_formula_sum   'Al2 Cu2 H10 C16 N8 O10'
_cell_volume   757.69657319
_cell_formula_units_Z   2
loop_
 _symmetry_equiv_pos_site_id
 _symmetry_equiv_pos_as_xyz
  1  'x, y, z'
loop_
 _atom_site_type_symbol
 _atom_site_label
 _atom_site_symmetry_multiplicity
 _atom_site_fract_x
 _atom_site_fract_y
 _atom_site_fract_z
 _atom_site_occupancy
  Al  Al1  1  0.00000000  0.00000000  0.00000000  1.0
  Al  Al2  1  0.50000000  0.00000000  0.00000000  1.0
  C  C1  1  0.58611000  0.68052500  0.69966000  1.0
  C  C2  1  0.91387000  0.68606000  0.30297000  1.0
  C  C3  1  0.41387000  0.31395500  0.69703000  1.0
  C  C4  1  0.08610500  0.31949000  0.30034000  1.0
  C  C5  1  0.41390000  0.31949000  0.30034000  1.0
  C  C6  1  0.08613000  0.31395500  0.69703000  1.0
  C  C7  1  0.58613000  0.68606000  0.30297000  1.0
  C  C8  1  0.91389000  0.68052500  0.69966000  1.0
  C  C9  1  0.75000000  0.73177000  0.75735000  1.0
  C  C10  1  0.75000000  0.73840000  0.24576000  1.0
  C  C11  1  0.25000000  0.26162000  0.75424000  1.0
  C  C12  1  0.25000000  0.26825000  0.24265000  1.0
  C  C13  1  0.75000000  0.82313000  0.85447750  1.0
  C  C14  1  0.75000000  0.82949000  0.14877000  1.0
  C  C15  1  0.25000000  0.17051250  0.85123000  1.0
  C  C16  1  0.25000000  0.17688500  0.14552750  1.0
  Cu  Cu1  1  0.50000000  0.50001500  0.50000000  1.0
  Cu  Cu2  1  0.00000000  0.50001500  0.50000000  1.0
  H  H1  1  0.43086000  0.69360000  0.71745500  1.0
  H  H2  1  0.06917000  0.69949500  0.28559000  1.0
  H  H3  1  0.56917000  0.30052000  0.71441750  1.0
  H  H4  1  0.93086000  0.30642000  0.28254500  1.0
  H  H5  1  0.56914000  0.30642000  0.28254500  1.0
  H  H6  1  0.93083000  0.30052000  0.71441750  1.0
  H  H7  1  0.43083000  0.69949500  0.28559000  1.0
  H  H8  1  0.06914000  0.69360000  0.71745500  1.0
  H  H9  1  0.75000000  0.19741500  0.98338000  1.0
  H  H10  1  0.25000000  0.80260500  0.01665750  1.0
  N  N1  1  0.85103000  0.60616000  0.61294000  1.0
  N  N2  1  0.64898000  0.60991000  0.38875000  1.0
  N  N3  1  0.14898000  0.39011000  0.61125000  1.0
  N  N4  1  0.35103000  0.39386500  0.38705500  1.0
  N  N5  1  0.14897000  0.39386500  0.38705500  1.0
  N  N6  1  0.35102000  0.39011000  0.61125000  1.0
  N  N7  1  0.85102000  0.60991000  0.38875000  1.0
  N  N8  1  0.64897000  0.60616000  0.61294000  1.0
  O  O1  1  0.25000000  0.90963000  0.00129000  1.0
  O  O2  1  0.58109000  0.85865000  0.89222000  1.0
  O  O3  1  0.91869750  0.86501750  0.11072000  1.0
  O  O4  1  0.41870000  0.13499000  0.88928000  1.0
  O  O5  1  0.08109000  0.14136000  0.10778000  1.0
  O  O6  1  0.41891000  0.14136000  0.10778000  1.0
  O  O7  1  0.08130000  0.13499000  0.88928000  1.0
  O  O8  1  0.58130250  0.86501750  0.11072000  1.0
  O  O9  1  0.91891000  0.85865000  0.89222000  1.0
  O  O10  1  0.75000000  0.09038000  0.99870000  1.0
