# generated using pymatgen
data_H17C27N4O
_symmetry_space_group_name_H-M   'P 1'
_cell_length_a   9.99353333
_cell_length_b   56.88370000
_cell_length_c   56.88370000
_cell_angle_alpha   60.00000000
_cell_angle_beta   89.98260000
_cell_angle_gamma   89.98350000
_symmetry_Int_Tables_number   1
_chemical_formula_structural   H17C27N4O
_chemical_formula_sum   'H204 C324 N48 O12'
_cell_volume   28004.34029460
_cell_formula_units_Z   12
loop_
 _symmetry_equiv_pos_site_id
 _symmetry_equiv_pos_as_xyz
  1  'x, y, z'
loop_
 _atom_site_type_symbol
 _atom_site_label
 _atom_site_symmetry_multiplicity
 _atom_site_fract_x
 _atom_site_fract_y
 _atom_site_fract_z
 _atom_site_occupancy
  C  1  1  0.97255600  0.46976567  0.21837067  1
  C  2  1  0.97220700  0.46966033  0.24265867  1
  C  3  1  0.99081700  0.49630033  0.23711400  1
  C  5  1  0.99381100  0.49639500  0.19742667  1
  C  6  1  0.00479100  0.50451467  0.16942100  1
  C  7  1  0.01282400  0.53191633  0.14814467  1
  C  9  1  0.01324000  0.57736867  0.12563033  1
  C  10  1  0.02670500  0.56872800  0.10666633  1
  C  11  1  0.02778500  0.54073033  0.12056133  1
  C  12  1  0.00576000  0.60472433  0.11975500  1
  C  13  1  0.99452100  0.61288133  0.13957967  1
  C  15  1  0.99018800  0.61274333  0.17928800  1
  C  16  1  0.97381800  0.63948433  0.15823867  1
  C  17  1  0.97780500  0.63960167  0.13392200  1
  C  18  1  0.99622600  0.60446000  0.20736733  1
  C  19  1  0.00512500  0.57704267  0.22867933  1
  C  21  1  0.00674100  0.53162500  0.25123967  1
  C  22  1  0.01878400  0.54018067  0.27025700  1
  C  23  1  0.01889900  0.56818067  0.25632933  1
  C  24  1  0.99869300  0.50434400  0.25706867  1
  C  25  1  0.99540600  0.48359500  0.28487567  1
  C  26  1  0.11530200  0.47338000  0.29964700  1
  C  27  1  0.11244900  0.45152500  0.32649600  1
  C  28  1  0.99019900  0.43893133  0.33919367  1
  C  29  1  0.87036000  0.44976000  0.32429033  1
  C  30  1  0.87263200  0.47186433  0.29759800  1
  C  31  1  0.99123800  0.62488100  0.21492700  1
  C  32  1  0.10405500  0.64125033  0.21146300  1
  C  33  1  0.10324000  0.65951767  0.22134833  1
  C  34  1  0.99047700  0.66177633  0.23519867  1
  C  35  1  0.87717000  0.64557267  0.23817500  1
  C  36  1  0.87681400  0.62760567  0.22795600  1
  C  37  1  0.00695600  0.62528733  0.09186033  1
  C  38  1  0.88595100  0.63662533  0.07798633  1
  C  39  1  0.88604100  0.65486167  0.04983033  1
  C  40  1  0.00648600  0.66184433  0.03464467  1
  C  41  1  0.12757900  0.65078267  0.04891867  1
  C  42  1  0.12811900  0.63291733  0.07713633  1
  C  43  1  0.00537600  0.48374567  0.16227900  1
  C  44  1  0.89330500  0.47970867  0.14958300  1
  C  45  1  0.11484200  0.46574067  0.16935367  1
  C  46  1  0.10980900  0.44358067  0.16487433  1
  C  47  1  0.99641100  0.43894200  0.15279100  1
  C  48  1  0.88985300  0.45783833  0.14462167  1
  C  75  1  0.97031000  0.21816433  0.24366633  1
  C  76  1  0.97006700  0.24245467  0.21948900  1
  C  77  1  0.98940700  0.23692167  0.19840233  1
  C  79  1  0.99234900  0.19724200  0.23797967  1
  C  80  1  0.00418100  0.16925700  0.25786967  1
  C  81  1  0.01246500  0.14798100  0.25174900  1
  C  83  1  0.01262000  0.12545900  0.22882167  1
  C  84  1  0.02637900  0.10650167  0.25642000  1
  C  85  1  0.02758600  0.12040200  0.27051667  1
  C  86  1  0.00501000  0.11957867  0.20734667  1
  C  87  1  0.99400600  0.13940100  0.17936133  1
  C  89  1  0.98969700  0.17911000  0.13978733  1
  C  90  1  0.97374700  0.15805467  0.13409333  1
  C  91  1  0.97753900  0.13373933  0.15829700  1
  C  92  1  0.99550200  0.20719400  0.11999567  1
  C  93  1  0.00426900  0.22850467  0.12610467  1
  C  95  1  0.00598000  0.25106333  0.14896233  1
  C  96  1  0.01834000  0.27007600  0.12139333  1
  C  97  1  0.01826900  0.25614967  0.10732000  1
  C  98  1  0.99798400  0.25688800  0.17041767  1
  C  99  1  0.99477600  0.28469433  0.16336533  1
  C  100  1  0.11472200  0.29943867  0.15884400  1
  C  101  1  0.11192900  0.32629267  0.15383967  1
  C  102  1  0.98968800  0.33901600  0.15369967  1
  C  103  1  0.86980900  0.32413633  0.15774400  1
  C  104  1  0.87200300  0.29745433  0.16230033  1
  C  105  1  0.99052300  0.21475767  0.09201533  1
  C  106  1  0.10338300  0.21132033  0.07909033  1
  C  107  1  0.10254500  0.22120667  0.05093800  1
  C  108  1  0.98971800  0.23502800  0.03484633  1
  C  109  1  0.87634300  0.23796467  0.04809500  1
  C  110  1  0.87610400  0.22778600  0.07627500  1
  C  111  1  0.00632600  0.09168333  0.21467967  1
  C  112  1  0.88539200  0.07778533  0.21723667  1
  C  113  1  0.88563000  0.04962933  0.22716300  1
  C  114  1  0.00615100  0.03447033  0.23533233  1
  C  115  1  0.12717900  0.04877067  0.23208733  1
  C  116  1  0.12757800  0.07698867  0.22173633  1
  C  117  1  0.00489100  0.16212633  0.28577533  1
  C  118  1  0.89298500  0.14938433  0.30255600  1
  C  119  1  0.11424100  0.16929100  0.29664333  1
  C  120  1  0.10937700  0.16479533  0.32329000  1
  C  121  1  0.99616200  0.15265033  0.34006333  1
  C  122  1  0.88964400  0.14443000  0.32938600  1
  C  149  1  0.97282700  0.24350000  0.46994067  1
  C  150  1  0.97243600  0.21931733  0.46983700  1
  C  151  1  0.99124300  0.19822400  0.49647100  1
  C  153  1  0.99426000  0.23781333  0.49656500  1
  C  154  1  0.00552000  0.25770133  0.50467400  1
  C  155  1  0.01362500  0.25158000  0.53207267  1
  C  157  1  0.01395500  0.22864433  0.57752533  1
  C  158  1  0.02717600  0.25625267  0.56888267  1
  C  159  1  0.02832100  0.27035300  0.54088667  1
  C  160  1  0.00637600  0.20716800  0.60488200  1
  C  161  1  0.99555000  0.17917833  0.61305533  1
  C  163  1  0.99127900  0.13959467  0.61292967  1
  C  164  1  0.97574700  0.13390133  0.63968900  1
  C  165  1  0.97958200  0.15810733  0.63979633  1
  C  166  1  0.99665100  0.11980400  0.60463133  1
  C  167  1  0.00512100  0.12590700  0.57720967  1
  C  169  1  0.00677200  0.14876467  0.53179200  1
  C  170  1  0.01865800  0.12118833  0.54034600  1
  C  171  1  0.01864000  0.10711433  0.56834567  1
  C  172  1  0.99913500  0.17022633  0.50450900  1
  C  173  1  0.99568000  0.16317100  0.48375933  1
  C  174  1  0.11549800  0.15860733  0.47351867  1
  C  175  1  0.11248100  0.15361500  0.45166300  1
  C  176  1  0.99014800  0.15351400  0.43910067  1
  C  177  1  0.87039100  0.15759700  0.44995600  1
  C  178  1  0.87281300  0.16216933  0.47207033  1
  C  179  1  0.99155900  0.09182300  0.62505067  1
  C  180  1  0.10443500  0.07887733  0.64138467  1
  C  181  1  0.10344500  0.05072967  0.65967233  1
  C  182  1  0.99054300  0.03465800  0.66194900  1
  C  183  1  0.87721000  0.04792667  0.64576833  1
  C  184  1  0.87694000  0.07611633  0.62781667  1
  C  185  1  0.00753700  0.21450367  0.62544133  1
  C  186  1  0.88653700  0.21703300  0.63679300  1
  C  187  1  0.88660200  0.22692567  0.65505067  1
  C  188  1  0.00700300  0.23516667  0.66199333  1
  C  189  1  0.12811000  0.23196233  0.65092033  1
  C  190  1  0.12867100  0.22161600  0.63305067  1
  C  191  1  0.00600700  0.28561000  0.48390233  1
  C  192  1  0.89390500  0.30234367  0.47987800  1
  C  193  1  0.11543700  0.29653633  0.46588733  1
  C  194  1  0.11023900  0.32316267  0.44370700  1
  C  195  1  0.99687300  0.33989733  0.43909800  1
  C  196  1  0.89037300  0.32917467  0.45800633  1
  C  223  1  0.97203800  0.48455567  0.73628800  1
  C  224  1  0.97185800  0.48466533  0.71199833  1
  C  225  1  0.99035300  0.45802133  0.71754300  1
  C  227  1  0.99304400  0.45791700  0.75723700  1
  C  228  1  0.00383900  0.44979367  0.78524600  1
  C  229  1  0.01172600  0.42239133  0.80652567  1
  C  231  1  0.01212500  0.37693800  0.82903900  1
  C  232  1  0.02529400  0.38557567  0.84800833  1
  C  233  1  0.02628500  0.41357300  0.83411700  1
  C  234  1  0.00479100  0.34958200  0.83491133  1
  C  235  1  0.99413100  0.34141233  0.81508967  1
  C  237  1  0.98996700  0.34154800  0.77537467  1
  C  238  1  0.97457900  0.31478300  0.79643833  1
  C  239  1  0.97833200  0.31467133  0.82075367  1
  C  240  1  0.99552200  0.34984733  0.74728667  1
  C  241  1  0.00406100  0.37726967  0.72596933  1
  C  243  1  0.00555600  0.42269000  0.70340867  1
  C  244  1  0.01736800  0.41413600  0.68438500  1
  C  245  1  0.01748700  0.38613667  0.69831067  1
  C  246  1  0.99798400  0.44997400  0.69758767  1
  C  247  1  0.99466100  0.47072667  0.66978233  1
  C  248  1  0.11454000  0.48092067  0.65499233  1
  C  249  1  0.11166400  0.50279833  0.62815600  1
  C  250  1  0.98940700  0.51539467  0.61546933  1
  C  251  1  0.86958100  0.50457700  0.63038867  1
  C  252  1  0.87187100  0.48246233  0.65707600  1
  C  253  1  0.99067300  0.32942633  0.73972667  1
  C  254  1  0.10368300  0.31310867  0.74313800  1
  C  255  1  0.10302400  0.29484233  0.73325167  1
  C  256  1  0.99024300  0.29253433  0.71944800  1
  C  257  1  0.87675300  0.30868567  0.71652633  1
  C  258  1  0.87623400  0.32664833  0.72675100  1
  C  259  1  0.00612600  0.32901733  0.86280367  1
  C  260  1  0.88520500  0.31763933  0.87669833  1
  C  261  1  0.88541500  0.29939833  0.90485300  1
  C  262  1  0.00588700  0.29246233  0.92001800  1
  C  263  1  0.12689900  0.30356167  0.90571967  1
  C  264  1  0.12735000  0.32140000  0.87749633  1
  C  265  1  0.00436000  0.47056100  0.79238933  1
  C  266  1  0.89222500  0.47460967  0.80507533  1
  C  267  1  0.11387100  0.48854500  0.78533667  1
  C  268  1  0.10879700  0.51070467  0.78981633  1
  C  269  1  0.99530300  0.51536533  0.80187600  1
  C  270  1  0.88870200  0.49648833  0.81002433  1
  C  297  1  0.97097600  0.73610733  0.71098333  1
  C  298  1  0.97060600  0.71181967  0.73516633  1
  C  299  1  0.98922300  0.71736367  0.75626200  1
  C  301  1  0.99224900  0.75705000  0.71666900  1
  C  302  1  0.00327000  0.78505333  0.69678233  1
  C  303  1  0.01135500  0.80633000  0.70290567  1
  C  305  1  0.01192600  0.82884400  0.72584367  1
  C  306  1  0.02540200  0.84780500  0.69823967  1
  C  307  1  0.02637900  0.83391000  0.68413733  1
  C  308  1  0.00456200  0.83472000  0.74732433  1
  C  309  1  0.99333000  0.81489900  0.77530633  1
  C  311  1  0.98897200  0.77519267  0.81487800  1
  C  312  1  0.97273500  0.79624500  0.82056967  1
  C  313  1  0.97673000  0.82056100  0.79636933  1
  C  314  1  0.99499200  0.74711267  0.83467433  1
  C  315  1  0.00377900  0.72579900  0.82856933  1
  C  317  1  0.00523500  0.70323733  0.80571267  1
  C  318  1  0.01731900  0.68421933  0.83328533  1
  C  319  1  0.01753800  0.69814733  0.84735667  1
  C  320  1  0.99711700  0.69740900  0.78426100  1
  C  321  1  0.99382900  0.66960233  0.79131967  1
  C  322  1  0.11372000  0.65482200  0.79588267  1
  C  323  1  0.11086500  0.62797167  0.80088133  1
  C  324  1  0.98861700  0.61528300  0.80098200  1
  C  325  1  0.86877900  0.63019467  0.79689967  1
  C  326  1  0.87105200  0.65688967  0.79230767  1
  C  327  1  0.99017700  0.73955600  0.86265533  1
  C  328  1  0.10310500  0.74301167  0.87553767  1
  C  329  1  0.10246300  0.73312633  0.90369067  1
  C  330  1  0.98976800  0.71928367  0.91982200  1
  C  331  1  0.87635400  0.71631567  0.90661767  1
  C  332  1  0.87582300  0.72653500  0.87843100  1
  C  333  1  0.00602100  0.86261300  0.73999533  1
  C  334  1  0.88515500  0.87654200  0.73744067  1
  C  335  1  0.88552000  0.90469800  0.72751733  1
  C  336  1  0.00610200  0.91982900  0.71933000  1
  C  337  1  0.12705400  0.90550000  0.72256333  1
  C  338  1  0.12731900  0.87728200  0.73291800  1
  C  339  1  0.00395000  0.79219200  0.66887333  1
  C  340  1  0.89194000  0.80489933  0.65211900  1
  C  341  1  0.11349000  0.78510800  0.65796433  1
  C  342  1  0.10858700  0.78959200  0.63132267  1
  C  343  1  0.99525000  0.80168800  0.61457767  1
  C  344  1  0.88861300  0.80986400  0.62528467  1
  C  371  1  0.97034400  0.71082233  0.48467233  1
  C  372  1  0.97005100  0.73500000  0.48478467  1
  C  373  1  0.98944600  0.75608600  0.45816667  1
  C  375  1  0.99245900  0.71650667  0.45806667  1
  C  376  1  0.00433000  0.69661533  0.44997267  1
  C  377  1  0.01268500  0.70273600  0.42257700  1
  C  379  1  0.01294000  0.72566400  0.37712733  1
  C  380  1  0.02669500  0.69806367  0.38577100  1
  C  381  1  0.02784100  0.68396667  0.41376767  1
  C  382  1  0.00537200  0.74713967  0.34977133  1
  C  383  1  0.99435100  0.77512567  0.34160733  1
  C  385  1  0.99001700  0.81470100  0.34174067  1
  C  386  1  0.97408700  0.82039500  0.31499000  1
  C  387  1  0.97789000  0.79619000  0.31488033  1
  C  388  1  0.99579600  0.83449300  0.35003233  1
  C  389  1  0.00448900  0.82838300  0.37745200  1
  C  391  1  0.00605700  0.80552500  0.42286833  1
  C  392  1  0.01841400  0.83309200  0.41431533  1
  C  393  1  0.01843900  0.84716600  0.38631567  1
  C  394  1  0.99798300  0.78407033  0.45014833  1
  C  395  1  0.99461000  0.79112367  0.47090000  1
  C  396  1  0.11447100  0.79564100  0.48115067  1
  C  397  1  0.11150500  0.80064700  0.50299833  1
  C  398  1  0.98917700  0.80079300  0.51555300  1
  C  399  1  0.86938800  0.79675133  0.50469200  1
  C  400  1  0.87175600  0.79219467  0.48256733  1
  C  401  1  0.99083700  0.86247500  0.32961300  1
  C  402  1  0.10369400  0.87538900  0.31325267  1
  C  403  1  0.10286800  0.90354000  0.29498233  1
  C  404  1  0.99005200  0.91964400  0.29270400  1
  C  405  1  0.87667500  0.90640600  0.30889033  1
  C  406  1  0.87642500  0.87822667  0.32689433  1
  C  407  1  0.00668100  0.73980467  0.32921000  1
  C  408  1  0.88574100  0.73725067  0.31787067  1
  C  409  1  0.88597100  0.72731967  0.29964533  1
  C  410  1  0.00649200  0.71914400  0.29265667  1
  C  411  1  0.12752500  0.72238733  0.30371000  1
  C  412  1  0.12793000  0.73274200  0.32157467  1
  C  413  1  0.00494000  0.66870900  0.47074767  1
  C  414  1  0.89299000  0.65195067  0.47476400  1
  C  415  1  0.11421200  0.65781767  0.48880200  1
  C  416  1  0.10923300  0.63117067  0.51095133  1
  C  417  1  0.99597600  0.61442133  0.51555767  1
  C  418  1  0.88953300  0.62512133  0.49663867  1
  C  445  1  0.87412300  0.37505633  0.39824867  1
  C  446  1  0.98866800  0.36610600  0.41527533  1
  C  447  1  0.10020700  0.38381167  0.40616733  1
  C  449  1  0.98834700  0.41525900  0.36542633  1
  C  453  1  0.64047200  0.37087967  0.40561333  1
  C  457  1  0.87363700  0.39809200  0.15849433  1
  C  458  1  0.98824600  0.41509667  0.15044233  1
  C  459  1  0.09975000  0.40599467  0.14181800  1
  C  461  1  0.98786500  0.36525167  0.15113300  1
  C  465  1  0.63996100  0.40543433  0.15534833  1
  C  469  1  0.87365300  0.15832933  0.37525800  1
  C  470  1  0.98814600  0.15026000  0.36627500  1
  C  471  1  0.09980800  0.14166933  0.38394600  1
  C  473  1  0.98812500  0.15093733  0.41543867  1
  C  477  1  0.63997000  0.15515200  0.37113633  1
  C  481  1  0.87324100  0.57924333  0.55639033  1
  C  482  1  0.98784100  0.58820967  0.53937600  1
  C  483  1  0.09942100  0.57051067  0.54848400  1
  C  485  1  0.98751100  0.53905000  0.58922367  1
  C  489  1  0.63958100  0.58342167  0.54904633  1
  C  493  1  0.87257800  0.55624000  0.79614700  1
  C  494  1  0.98712600  0.53920533  0.80423467  1
  C  495  1  0.09859200  0.54829067  0.81286767  1
  C  497  1  0.98676500  0.58904900  0.80354567  1
  C  501  1  0.63891000  0.54891733  0.79929100  1
  C  505  1  0.87271300  0.79600133  0.57939867  1
  C  506  1  0.98723700  0.80404500  0.58837867  1
  C  507  1  0.09882100  0.81266600  0.57067767  1
  C  509  1  0.98717700  0.80335900  0.53922233  1
  C  513  1  0.63900500  0.79916300  0.58354433  1
  C  517  1  0.88764100  0.69472967  0.24705600  1
  C  518  1  0.99495000  0.67797133  0.24792367  1
  C  519  1  0.10668100  0.67652500  0.26386467  1
  C  521  1  0.00492600  0.70638733  0.27657533  1
  C  525  1  0.65054800  0.69498133  0.24359000  1
  C  529  1  0.88699000  0.24687433  0.99004500  1
  C  530  1  0.99419100  0.24777900  0.00592467  1
  C  531  1  0.10596400  0.26370800  0.99142233  1
  C  533  1  0.00425500  0.27640433  0.94885900  1
  C  537  1  0.64989800  0.24339533  0.99328267  1
  C  541  1  0.88758000  0.98987800  0.69491067  1
  C  542  1  0.99487100  0.00573600  0.67812867  1
  C  543  1  0.10648500  0.99121100  0.67667033  1
  C  545  1  0.00464200  0.94866800  0.70656467  1
  C  549  1  0.65051900  0.99316400  0.69518067  1
  C  553  1  0.88779600  0.25954867  0.70761233  1
  C  554  1  0.99491100  0.27634700  0.70671700  1
  C  555  1  0.10667700  0.27782200  0.69076067  1
  C  557  1  0.00525200  0.24792833  0.67807000  1
  C  561  1  0.65069000  0.25924167  0.71110233  1
  C  565  1  0.88723600  0.70743833  0.96465167  1
  C  566  1  0.99441500  0.70656067  0.94874100  1
  C  567  1  0.10619700  0.69061333  0.96321367  1
  C  569  1  0.00474500  0.67792233  0.00580633  1
  C  573  1  0.65012900  0.71091233  0.96148833  1
  C  577  1  0.88729600  0.96445200  0.25975133  1
  C  578  1  0.99453000  0.94856500  0.27652833  1
  C  579  1  0.10632600  0.96306100  0.27794600  1
  C  581  1  0.00459000  0.00563167  0.24808300  1
  C  585  1  0.65019700  0.96123600  0.25951800  1
  H  49  1  0.80726900  0.45565467  0.13530400  1
  H  50  1  0.81230200  0.49236900  0.14433400  1
  H  51  1  0.18798900  0.43016433  0.17167300  1
  H  52  1  0.19661500  0.46795267  0.17891433  1
  H  53  1  0.96014800  0.45281900  0.21672033  1
  H  54  1  0.96021900  0.45262400  0.26120500  1
  H  55  1  0.02456200  0.53051333  0.20033867  1
  H  56  1  0.02004000  0.57849833  0.17656933  1
  H  57  1  0.03651100  0.52903667  0.11165100  1
  H  58  1  0.03432900  0.58052833  0.08605567  1
  H  59  1  0.79658700  0.63101100  0.08813000  1
  H  60  1  0.79581200  0.66184833  0.04037433  1
  H  61  1  0.21694300  0.62466633  0.08667800  1
  H  62  1  0.21705200  0.65520033  0.03884700  1
  H  63  1  0.97031400  0.65667700  0.11526833  1
  H  64  1  0.96334000  0.65647333  0.15988833  1
  H  65  1  0.02598500  0.52830800  0.29087100  1
  H  66  1  0.02672500  0.57985067  0.26527900  1
  H  67  1  0.18892500  0.63941233  0.20242733  1
  H  68  1  0.18746300  0.67076033  0.21885633  1
  H  69  1  0.79482000  0.61555100  0.23126600  1
  H  70  1  0.79581700  0.64562167  0.24903967  1
  H  71  1  0.78444400  0.47876300  0.28720867  1
  H  72  1  0.77955000  0.44141167  0.33254733  1
  H  73  1  0.20178800  0.44418467  0.33621600  1
  H  74  1  0.20565900  0.48135867  0.29074067  1
  H  123  1  0.80720900  0.13506567  0.34092900  1
  H  124  1  0.81203200  0.14408467  0.29518500  1
  H  125  1  0.18755800  0.17161200  0.32987967  1
  H  126  1  0.19594000  0.17886200  0.28484033  1
  H  127  1  0.95825800  0.21651467  0.26227200  1
  H  128  1  0.95828900  0.26100300  0.21798533  1
  H  129  1  0.02532500  0.20020200  0.20099533  1
  H  130  1  0.01845000  0.17640133  0.17677767  1
  H  131  1  0.03658100  0.11150033  0.29111500  1
  H  132  1  0.03413900  0.08589267  0.26522933  1
  H  133  1  0.79599700  0.08791933  0.21269067  1
  H  134  1  0.79547700  0.04015667  0.22960333  1
  H  135  1  0.21633600  0.08654467  0.22045267  1
  H  136  1  0.21669200  0.03871633  0.23774200  1
  H  137  1  0.97018600  0.11508400  0.15987633  1
  H  138  1  0.96319600  0.15970200  0.11545867  1
  H  139  1  0.02586400  0.29068467  0.11265800  1
  H  140  1  0.02645300  0.26509200  0.08670433  1
  H  141  1  0.18826400  0.20228833  0.08995033  1
  H  142  1  0.18680800  0.21873600  0.04217367  1
  H  143  1  0.79405200  0.23107567  0.08503000  1
  H  144  1  0.79506200  0.24886200  0.03718833  1
  H  145  1  0.78379000  0.28707300  0.16579933  1
  H  146  1  0.77900100  0.33241667  0.15780000  1
  H  147  1  0.20129800  0.33599400  0.15148600  1
  H  148  1  0.20507000  0.29051067  0.15980600  1
  H  197  1  0.80783100  0.34068833  0.45584700  1
  H  198  1  0.81295300  0.29493667  0.49255267  1
  H  199  1  0.18847400  0.32979500  0.43030433  1
  H  200  1  0.19718500  0.28475467  0.46808600  1
  H  201  1  0.96048900  0.26209933  0.45299167  1
  H  202  1  0.96047800  0.21780900  0.45279967  1
  H  203  1  0.02578300  0.20078467  0.53065000  1
  H  204  1  0.01909900  0.17659667  0.57861167  1
  H  205  1  0.03700200  0.29095733  0.52919133  1
  H  206  1  0.03464800  0.26506533  0.58068233  1
  H  207  1  0.79720400  0.21245100  0.63122467  1
  H  208  1  0.79638200  0.22938733  0.66205233  1
  H  209  1  0.21749700  0.22034433  0.62478100  1
  H  210  1  0.21754900  0.23765400  0.65530033  1
  H  211  1  0.97225600  0.15968967  0.65687167  1
  H  212  1  0.96522100  0.11526800  0.65668167  1
  H  213  1  0.02594400  0.11244867  0.52847233  1
  H  214  1  0.02657500  0.08649533  0.58001567  1
  H  215  1  0.18941900  0.08971833  0.63952900  1
  H  216  1  0.18774300  0.04194600  0.67087600  1
  H  217  1  0.79497200  0.08487733  0.61575633  1
  H  218  1  0.79580100  0.03703467  0.64581833  1
  H  219  1  0.78469000  0.16567367  0.47898533  1
  H  220  1  0.77951600  0.15767400  0.44164100  1
  H  221  1  0.20177700  0.15121467  0.44431400  1
  H  222  1  0.20591000  0.15952867  0.48147700  1
  H  271  1  0.80609500  0.49867600  0.81934367  1
  H  272  1  0.81117200  0.46197033  0.81030067  1
  H  273  1  0.18701300  0.52410633  0.78303433  1
  H  274  1  0.19570400  0.48631967  0.77579000  1
  H  275  1  0.95972900  0.50150767  0.73793533  1
  H  276  1  0.96000900  0.50170733  0.69345033  1
  H  277  1  0.02360200  0.42378967  0.75432667  1
  H  278  1  0.01760000  0.37586200  0.77806967  1
  H  279  1  0.03510000  0.42526500  0.84302633  1
  H  280  1  0.03281800  0.37377233  0.86862033  1
  H  281  1  0.79580300  0.32323467  0.86657233  1
  H  282  1  0.79524000  0.29239733  0.91433233  1
  H  283  1  0.21608700  0.32972333  0.86795267  1
  H  284  1  0.21638700  0.29919167  0.91577667  1
  H  285  1  0.97105600  0.29759233  0.83940967  1
  H  286  1  0.96420100  0.29779100  0.79479333  1
  H  287  1  0.02455300  0.42601033  0.66377000  1
  H  288  1  0.02528800  0.37446900  0.68935600  1
  H  289  1  0.18862800  0.31500500  0.75210667  1
  H  290  1  0.18743000  0.28365833  0.73568500  1
  H  291  1  0.79409600  0.33866500  0.72347867  1
  H  292  1  0.79536700  0.30860367  0.70569500  1
  H  293  1  0.78370500  0.47557667  0.66748300  1
  H  294  1  0.77875600  0.51291967  0.62213600  1
  H  295  1  0.20098700  0.51009733  0.61840467  1
  H  296  1  0.20490000  0.47293200  0.66388700  1
  H  345  1  0.80606900  0.81919000  0.61376667  1
  H  346  1  0.81089200  0.81015600  0.65951433  1
  H  347  1  0.18681400  0.78278900  0.62471867  1
  H  348  1  0.19522200  0.77553967  0.66975233  1
  H  349  1  0.95858700  0.73775767  0.69238600  1
  H  350  1  0.95861800  0.69327400  0.73667733  1
  H  351  1  0.02298200  0.75413600  0.75370000  1
  H  352  1  0.01865900  0.77790467  0.77791300  1
  H  353  1  0.03510500  0.84281800  0.66353333  1
  H  354  1  0.03309900  0.86841467  0.68943000  1
  H  355  1  0.79569300  0.86643800  0.74195733  1
  H  356  1  0.79538200  0.91419600  0.72503267  1
  H  357  1  0.21604800  0.86770000  0.73422167  1
  H  358  1  0.21662200  0.91553000  0.71692167  1
  H  359  1  0.96933900  0.83921700  0.79479033  1
  H  360  1  0.96235000  0.79459833  0.83920833  1
  H  361  1  0.02450400  0.66360433  0.84202667  1
  H  362  1  0.02542800  0.68919733  0.86797567  1
  H  363  1  0.18792800  0.75204067  0.86464733  1
  H  364  1  0.18676300  0.73561233  0.91242433  1
  H  365  1  0.79374600  0.72323067  0.86970333  1
  H  366  1  0.79504000  0.70545667  0.91754767  1
  H  367  1  0.78286300  0.66728500  0.78881300  1
  H  368  1  0.77796500  0.62194367  0.79680600  1
  H  369  1  0.20020600  0.61824467  0.80326533  1
  H  370  1  0.20407900  0.66372167  0.79495733  1
  H  419  1  0.80707000  0.61359567  0.49880033  1
  H  420  1  0.81209100  0.65933900  0.46207800  1
  H  421  1  0.18736700  0.62456500  0.52437233  1
  H  422  1  0.19593900  0.66960333  0.48658667  1
  H  423  1  0.95824800  0.69221833  0.50162600  1
  H  424  1  0.95819800  0.73650533  0.50182667  1
  H  425  1  0.02549200  0.75348933  0.42404567  1
  H  426  1  0.01878400  0.77770900  0.37602400  1
  H  427  1  0.03681100  0.66336767  0.42546633  1
  H  428  1  0.03448800  0.68925433  0.37397167  1
  H  429  1  0.79634700  0.74180067  0.32345867  1
  H  430  1  0.79581700  0.72488133  0.29261367  1
  H  431  1  0.21669200  0.73402300  0.32984600  1
  H  432  1  0.21703800  0.71672700  0.29931233  1
  H  433  1  0.97055100  0.79460967  0.29780467  1
  H  434  1  0.96353000  0.83903000  0.29800167  1
  H  435  1  0.02588400  0.84182700  0.42618967  1
  H  436  1  0.02663500  0.86778100  0.37464367  1
  H  437  1  0.18856900  0.86452000  0.31508467  1
  H  438  1  0.18712900  0.91229500  0.28374833  1
  H  439  1  0.79437100  0.86948100  0.33893667  1
  H  440  1  0.79540400  0.91732000  0.30887667  1
  H  441  1  0.78360300  0.78869833  0.47566567  1
  H  442  1  0.77852100  0.79669933  0.51300700  1
  H  443  1  0.20081200  0.80299800  0.51036633  1
  H  444  1  0.20487400  0.79467533  0.47320533  1
  H  452  1  0.18636900  0.37902867  0.41730100  1
  H  454  1  0.64668000  0.37686100  0.42109000  1
  H  455  1  0.56133100  0.35578733  0.41142733  1
  H  456  1  0.61318900  0.38849333  0.38617033  1
  H  464  1  0.18596200  0.41711500  0.13547933  1
  H  466  1  0.64613500  0.42092367  0.13389367  1
  H  467  1  0.56081100  0.41123100  0.16464867  1
  H  468  1  0.61270300  0.38599633  0.15716500  1
  H  476  1  0.18595600  0.13533200  0.37913233  1
  H  478  1  0.64616500  0.13369400  0.37711633  1
  H  479  1  0.56074500  0.16443500  0.35606267  1
  H  480  1  0.61280300  0.15698300  0.38875633  1
  H  488  1  0.18567700  0.57531467  0.53736933  1
  H  490  1  0.64582000  0.57746967  0.53354733  1
  H  491  1  0.56040000  0.59850833  0.54325967  1
  H  492  1  0.61231900  0.56578967  0.56847933  1
  H  500  1  0.18472600  0.53714267  0.81924067  1
  H  502  1  0.64502500  0.53344700  0.82075267  1
  H  503  1  0.55979500  0.54311100  0.79000233  1
  H  504  1  0.61163800  0.56836900  0.79744767  1
  H  512  1  0.18498200  0.81899800  0.57547933  1
  H  514  1  0.64514900  0.82061600  0.57758567  1
  H  515  1  0.55978900  0.78986533  0.59862267  1
  H  516  1  0.61186300  0.79735367  0.56591367  1
  H  524  1  0.18653700  0.66429067  0.26626300  1
  H  526  1  0.64220200  0.67460467  0.26122200  1
  H  527  1  0.57363900  0.69727633  0.22900467  1
  H  528  1  0.63192100  0.71001933  0.24979667  1
  H  536  1  0.18570700  0.26614667  0.00124700  1
  H  538  1  0.64153200  0.26101700  0.99604567  1
  H  539  1  0.57300300  0.22880200  0.00557300  1
  H  540  1  0.63128000  0.24961767  0.97203667  1
  H  548  1  0.18632200  0.00102200  0.66442267  1
  H  550  1  0.64208300  0.99591900  0.67480200  1
  H  551  1  0.57371700  0.00547367  0.69748667  1
  H  552  1  0.63181500  0.97192400  0.71021433  1
  H  560  1  0.18632800  0.29011200  0.68831033  1
  H  562  1  0.64224200  0.27962100  0.69347867  1
  H  563  1  0.57374700  0.25692167  0.72569867  1
  H  564  1  0.63221600  0.24420867  0.70488567  1
  H  572  1  0.18596600  0.68820667  0.95336233  1
  H  574  1  0.64171400  0.69327933  0.95874700  1
  H  575  1  0.57317300  0.72550000  0.94921333  1
  H  576  1  0.63164500  0.70470800  0.98273600  1
  H  584  1  0.18608700  0.95323200  0.29020700  1
  H  586  1  0.64186700  0.95848100  0.27989967  1
  H  587  1  0.57326900  0.94894900  0.25722267  1
  H  588  1  0.63157600  0.98248200  0.24448967  1
  N  4  1  0.00289000  0.51149500  0.20975033  1
  N  8  1  0.00467100  0.55457067  0.15015500  1
  N  14  1  0.00073700  0.59761600  0.16701533  1
  N  20  1  0.99853300  0.55438400  0.22667800  1
  N  78  1  0.00131700  0.20955533  0.21055300  1
  N  82  1  0.00397600  0.14998267  0.22709367  1
  N  88  1  0.00022700  0.16683767  0.16718367  1
  N  94  1  0.99764200  0.22650200  0.15076567  1
  N  152  1  0.00324000  0.21038833  0.51167167  1
  N  156  1  0.00545000  0.22691733  0.55472767  1
  N  162  1  0.00183700  0.16699233  0.59780500  1
  N  168  1  0.99881400  0.15057233  0.55455067  1
  N  226  1  0.00214800  0.44281900  0.74491033  1
  N  230  1  0.00371800  0.39973767  0.80451367  1
  N  236  1  0.00041700  0.35666733  0.78765367  1
  N  242  1  0.99768200  0.39992867  0.72797500  1
  N  300  1  0.00130800  0.74472600  0.74409300  1
  N  304  1  0.00325000  0.80432100  0.72757100  1
  N  310  1  0.99943800  0.78746200  0.78747767  1
  N  316  1  0.99709700  0.72780033  0.80391033  1
  N  374  1  0.00144400  0.74393300  0.44295367  1
  N  378  1  0.00424100  0.72739300  0.39992267  1
  N  384  1  0.00055300  0.78730333  0.35686567  1
  N  390  1  0.99781200  0.80372200  0.40011033  1
  N  448  1  0.09720900  0.40723867  0.38196167  1
  N  450  1  0.87990800  0.39862900  0.37408633  1
  N  460  1  0.09674500  0.38178267  0.14261000  1
  N  462  1  0.87940500  0.37392200  0.15909767  1
  N  472  1  0.09695100  0.14244133  0.40737700  1
  N  474  1  0.87959600  0.15891233  0.39883267  1
  N  484  1  0.09643100  0.54708800  0.57269367  1
  N  486  1  0.87902700  0.55567533  0.58055867  1
  N  496  1  0.09559000  0.57249700  0.81208667  1
  N  498  1  0.87835700  0.58040233  0.79555767  1
  N  508  1  0.09597400  0.81187600  0.54725567  1
  N  510  1  0.87863500  0.79540033  0.55583200  1
  N  520  1  0.10777800  0.69028067  0.27759133  1
  N  522  1  0.89754700  0.70830067  0.26104533  1
  N  532  1  0.10705600  0.27743767  0.96394033  1
  N  534  1  0.89691700  0.26085433  0.96248367  1
  N  544  1  0.10747700  0.96372800  0.69043533  1
  N  546  1  0.89737900  0.96231500  0.70848933  1
  N  556  1  0.10791700  0.26407533  0.67702533  1
  N  558  1  0.89786800  0.24597633  0.69362500  1
  N  568  1  0.10746600  0.67689333  0.99069567  1
  N  570  1  0.89730900  0.69345533  0.99221000  1
  N  580  1  0.10740600  0.99054400  0.26419433  1
  N  582  1  0.89721600  0.99201200  0.24617267  1
  O  451  1  0.76359000  0.35889267  0.40354767  1
  O  463  1  0.76308600  0.40336533  0.16938667  1
  O  475  1  0.76303200  0.16919700  0.35912100  1
  O  487  1  0.76265500  0.59539800  0.55112400  1
  O  499  1  0.76207500  0.55095767  0.78526400  1
  O  511  1  0.76209500  0.78511433  0.59553933  1
  O  523  1  0.77891100  0.69919067  0.23060600  1
  O  535  1  0.77827100  0.23041467  0.00203633  1
  O  547  1  0.77897100  0.00189600  0.69938567  1
  O  559  1  0.77904000  0.25505100  0.72407667  1
  O  571  1  0.77846200  0.72389233  0.95268433  1
  O  583  1  0.77854200  0.95246733  0.25529133  1
