# generated using pymatgen
data_CoH4(C3O2)4
_symmetry_space_group_name_H-M   'P 1'
_cell_length_a   15.30996000
_cell_length_b   15.34357000
_cell_length_c   16.84437000
_cell_angle_alpha   67.79099000
_cell_angle_beta   67.99081000
_cell_angle_gamma   61.95662000
_symmetry_Int_Tables_number   1
_chemical_formula_structural   CoH4(C3O2)4
_chemical_formula_sum   'Co6 H24 C72 O48'
_cell_volume   3137.81572558
_cell_formula_units_Z   6
loop_
 _symmetry_equiv_pos_site_id
 _symmetry_equiv_pos_as_xyz
  1  'x, y, z'
loop_
 _atom_site_type_symbol
 _atom_site_label
 _atom_site_symmetry_multiplicity
 _atom_site_fract_x
 _atom_site_fract_y
 _atom_site_fract_z
 _atom_site_occupancy
  Co  Co0  1  0.71859000  0.56407000  0.60966000  1
  Co  Co1  1  0.42987000  0.28995000  0.89429000  1
  Co  Co2  1  0.33994000  0.65884000  0.24981000  1
  Co  Co3  1  0.56319000  0.71954000  0.10895000  1
  Co  Co4  1  0.65908000  0.33994000  0.75133000  1
  Co  Co5  1  0.29035000  0.42964000  0.39410000  1
  H  H6  1  0.37923000  0.02953000  0.05009000  1
  H  H7  1  0.65934000  0.57256000  0.39044000  1
  H  H8  1  0.60100000  0.30161000  0.55514000  1
  H  H9  1  0.97250000  0.61808000  0.45058000  1
  H  H10  1  0.25852000  0.09320000  0.64431000  1
  H  H11  1  0.61827000  0.97229000  0.95043000  1
  H  H12  1  0.16711000  0.94183000  0.28644000  1
  H  H13  1  0.57247000  0.65944000  0.89031000  1
  H  H14  1  0.34165000  0.42804000  0.60896000  1
  H  H15  1  0.90442000  0.74274000  0.85684000  1
  H  H16  1  0.39623000  0.70014000  0.44355000  1
  H  H17  1  0.30159000  0.60072000  0.05440000  1
  H  H18  1  0.94208000  0.16669000  0.78655000  1
  H  H19  1  0.70001000  0.39636000  0.94442000  1
  H  H20  1  0.02908000  0.37957000  0.55007000  1
  H  H21  1  0.74254000  0.90481000  0.35664000  1
  H  H22  1  0.83114000  0.05891000  0.71422000  1
  H  H23  1  0.09356000  0.25844000  0.14414000  1
  H  H24  1  0.46113000  0.49673000  0.81702000  1
  H  H25  1  0.05851000  0.83154000  0.21427000  1
  H  H26  1  0.50201000  0.54243000  0.68167000  1
  H  H27  1  0.42788000  0.34158000  0.10932000  1
  H  H28  1  0.49672000  0.46104000  0.31697000  1
  H  H29  1  0.54233000  0.50208000  0.18159000  1
  C  C30  1  0.43817000  0.39120000  0.73424000  1
  C  C31  1  0.42193000  0.47671000  0.65509000  1
  C  C32  1  0.51523000  0.63024000  0.90149000  1
  C  C33  1  0.25856000  0.23714000  0.01387000  1
  C  C34  1  0.00034000  0.81063000  0.26950000  1
  C  C35  1  0.28094000  0.97465000  0.16937000  1
  C  C36  1  0.84959000  0.75964000  0.41175000  1
  C  C37  1  0.86554000  0.35226000  0.67955000  1
  C  C38  1  0.00068000  0.18701000  0.73143000  1
  C  C39  1  0.17868000  0.14489000  0.65201000  1
  C  C40  1  0.13673000  0.64454000  0.32029000  1
  C  C41  1  0.37350000  0.54413000  0.93645000  1
  C  C42  1  0.85268000  0.82250000  0.84922000  1
  C  C43  1  0.30667000  0.05056000  0.09824000  1
  C  C44  1  0.63792000  0.43438000  0.47799000  1
  C  C45  1  0.39087000  0.43813000  0.23389000  1
  C  C46  1  0.45322000  0.53760000  0.86100000  1
  C  C47  1  0.76652000  0.73653000  0.48724000  1
  C  C48  1  0.71599000  0.02726000  0.83091000  1
  C  C49  1  0.82232000  0.85295000  0.34921000  1
  C  C50  1  0.87735000  0.89850000  0.77823000  1
  C  C51  1  0.30893000  0.48364000  0.96167000  1
  C  C52  1  0.35187000  0.86557000  0.17881000  1
  C  C53  1  0.45174000  0.63036000  0.56280000  1
  C  C54  1  0.67694000  0.43264000  0.54822000  1
  C  C55  1  0.48576000  0.37015000  0.09776000  1
  C  C56  1  0.95151000  0.69090000  0.40246000  1
  C  C57  1  0.43409000  0.63814000  0.97738000  1
  C  C58  1  0.69089000  0.95141000  0.90235000  1
  C  C59  1  0.40099000  0.63975000  0.50428000  1
  C  C60  1  0.56769000  0.36003000  0.02264000  1
  C  C61  1  0.50871000  0.69587000  0.53967000  1
  C  C62  1  0.64462000  0.13691000  0.82089000  1
  C  C63  1  0.37015000  0.48589000  0.59748000  1
  C  C64  1  0.43219000  0.67749000  0.04726000  1
  C  C65  1  0.12048000  0.10278000  0.22281000  1
  C  C66  1  0.12979000  0.02293000  0.79021000  1
  C  C67  1  0.47655000  0.42195000  0.15512000  1
  C  C68  1  0.48410000  0.30884000  0.46182000  1
  C  C69  1  0.59640000  0.36287000  0.49499000  1
  C  C70  1  0.57003000  0.31861000  0.95425000  1
  C  C71  1  0.23815000  0.15233000  0.08932000  1
  C  C72  1  0.73625000  0.76658000  0.98731000  1
  C  C73  1  0.53773000  0.45314000  0.36104000  1
  C  C74  1  0.63007000  0.51539000  0.40170000  1
  C  C75  1  0.56416000  0.60903000  0.26338000  1
  C  C76  1  0.02711000  0.71617000  0.33088000  1
  C  C77  1  0.97441000  0.87176000  0.71127000  1
  C  C78  1  0.46087000  0.54985000  0.63795000  1
  C  C79  1  0.81019000  0.00071000  0.76948000  1
  C  C80  1  0.15207000  0.23809000  0.58933000  1
  C  C81  1  0.36274000  0.59632000  0.99436000  1
  C  C82  1  0.63969000  0.40096000  0.00500000  1
  C  C83  1  0.75960000  0.84951000  0.91163000  1
  C  C84  1  0.36022000  0.56769000  0.52196000  1
  C  C85  1  0.10291000  0.11998000  0.72293000  1
  C  C86  1  0.54427000  0.37355000  0.43680000  1
  C  C87  1  0.05025000  0.30676000  0.59821000  1
  C  C88  1  0.02362000  0.12927000  0.28999000  1
  C  C89  1  0.18734000  0.00057000  0.23137000  1
  C  C90  1  0.87119000  0.97511000  0.21105000  1
  C  C91  1  0.57941000  0.52453000  0.34308000  1
  C  C92  1  0.63023000  0.45175000  0.06329000  1
  C  C93  1  0.97458000  0.28094000  0.66951000  1
  C  C94  1  0.60926000  0.56400000  0.76401000  1
  C  C95  1  0.23686000  0.25861000  0.51399000  1
  C  C96  1  0.89807000  0.87790000  0.27822000  1
  C  C97  1  0.31925000  0.56970000  0.45326000  1
  C  C98  1  0.52458000  0.57931000  0.84326000  1
  C  C99  1  0.69598000  0.50836000  0.04027000  1
  C  C100  1  0.14519000  0.17870000  0.15190000  1
  C  C101  1  0.54967000  0.46091000  0.13812000  1
  O  O102  1  0.93669000  0.00903000  0.15151000  1
  O  O103  1  0.79531000  0.64213000  0.53968000  1
  O  O104  1  0.79990000  0.31683000  0.73780000  1
  O  O105  1  0.96409000  0.21984000  0.29639000  1
  O  O106  1  0.99006000  0.06348000  0.34934000  1
  O  O107  1  0.55280000  0.15938000  0.86509000  1
  O  O108  1  0.49741000  0.62561000  0.22263000  1
  O  O109  1  0.67867000  0.36215000  0.61860000  1
  O  O110  1  0.22063000  0.96351000  0.79657000  1
  O  O111  1  0.50048000  0.28502000  0.97319000  1
  O  O112  1  0.50764000  0.70248000  0.03146000  1
  O  O113  1  0.19199000  0.32198000  0.99860000  1
  O  O114  1  0.35543000  0.21061000  0.96564000  1
  O  O115  1  0.62631000  0.49699000  0.72365000  1
  O  O116  1  0.68558000  0.20038000  0.76550000  1
  O  O117  1  0.32338000  0.63680000  0.38051000  1
  O  O118  1  0.38386000  0.33906000  0.77111000  1
  O  O119  1  0.37328000  0.50636000  0.27308000  1
  O  O120  1  0.44201000  0.84599000  0.12951000  1
  O  O121  1  0.63723000  0.32283000  0.88166000  1
  O  O122  1  0.70148000  0.50827000  0.53226000  1
  O  O123  1  0.68034000  0.56507000  0.08924000  1
  O  O124  1  0.15937000  0.55271000  0.36462000  1
  O  O125  1  0.33871000  0.38390000  0.27060000  1
  O  O126  1  0.00852000  0.93711000  0.65177000  1
  O  O127  1  0.61653000  0.66355000  0.22650000  1
  O  O128  1  0.84543000  0.44245000  0.63036000  1
  O  O129  1  0.32160000  0.19184000  0.49901000  1
  O  O130  1  0.42424000  0.33472000  0.40948000  1
  O  O131  1  0.06436000  0.98890000  0.84963000  1
  O  O132  1  0.31647000  0.79968000  0.23636000  1
  O  O133  1  0.76744000  0.50606000  0.97183000  1
  O  O134  1  0.66359000  0.61651000  0.72697000  1
  O  O135  1  0.50647000  0.37378000  0.77362000  1
  O  O136  1  0.48946000  0.23710000  0.52782000  1
  O  O137  1  0.03366000  0.78097000  0.70533000  1
  O  O138  1  0.50621000  0.76725000  0.47089000  1
  O  O139  1  0.64228000  0.79567000  0.03927000  1
  O  O140  1  0.23725000  0.48886000  0.02744000  1
  O  O141  1  0.56578000  0.68015000  0.58853000  1
  O  O142  1  0.28624000  0.49961000  0.47253000  1
  O  O143  1  0.20019000  0.68521000  0.26426000  1
  O  O144  1  0.33503000  0.42407000  0.90931000  1
  O  O145  1  0.36186000  0.67908000  0.11743000  1
  O  O146  1  0.78035000  0.03465000  0.20478000  1
  O  O147  1  0.21069000  0.35545000  0.46550000  1
  O  O148  1  0.79933000  0.67848000  0.00002000  1
  O  O149  1  0.67874000  0.79951000  0.49979000  1
