# generated using pymatgen
data_AgH15C15N6O
_symmetry_space_group_name_H-M   'P 1'
_cell_length_a   11.42490000
_cell_length_b   17.61476507
_cell_length_c   17.67513000
_cell_angle_alpha   115.40617421
_cell_angle_beta   102.49266000
_cell_angle_gamma   102.38260306
_symmetry_Int_Tables_number   1
_chemical_formula_structural   AgH15C15N6O
_chemical_formula_sum   'Ag6 H90 C90 N36 O6'
_cell_volume   2940.45380939
_cell_formula_units_Z   6
loop_
 _symmetry_equiv_pos_site_id
 _symmetry_equiv_pos_as_xyz
  1  'x, y, z'
loop_
 _atom_site_type_symbol
 _atom_site_label
 _atom_site_symmetry_multiplicity
 _atom_site_fract_x
 _atom_site_fract_y
 _atom_site_fract_z
 _atom_site_occupancy
  Ag  Ag0  1  0.85231000  0.19708000  0.63022000  1
  Ag  Ag1  1  0.22218000  0.37051000  0.56744000  1
  Ag  Ag2  1  0.65481000  0.43277000  0.80293000  1
  Ag  Ag3  1  0.14769000  0.80292000  0.36979000  1
  Ag  Ag4  1  0.77782000  0.62949000  0.43257000  1
  Ag  Ag5  1  0.34519000  0.56723000  0.19707000  1
  H  H6  1  0.61016000  0.20150000  0.86376000  1
  H  H7  1  0.76710000  0.27310000  0.94428000  1
  H  H8  1  0.68308000  0.38093000  0.04274000  1
  H  H9  1  0.52945000  0.29894000  0.96821000  1
  H  H10  1  0.38315000  0.36997000  0.00933000  1
  H  H11  1  0.70526000  0.50949000  0.97084000  1
  H  H12  1  0.70370000  0.10912000  0.85590000  1
  H  H13  1  0.82539000  0.99186000  0.78687000  1
  H  H14  1  0.95866000  0.06006000  0.70525000  1
  H  H15  1  0.48024000  0.22322000  0.76385000  1
  H  H16  1  0.37962000  0.20565000  0.59922000  1
  H  H17  1  0.58155000  0.21468000  0.53873000  1
  H  H18  1  0.01794000  0.31371000  0.90473000  1
  H  H19  1  0.14323000  0.48278000  0.93818000  1
  H  H20  1  0.95359000  0.52707000  0.86017000  1
  H  H21  1  0.74680000  0.13599000  0.33858000  1
  H  H22  1  0.82321000  0.05522000  0.33019000  1
  H  H23  1  0.63988000  0.95713000  0.33879000  1
  H  H24  1  0.56146000  0.03252000  0.33187000  1
  H  H25  1  0.37401000  0.99141000  0.36129000  1
  H  H26  1  0.73431000  0.02889000  0.53846000  1
  H  H27  1  0.84786000  0.14426000  0.25492000  1
  H  H28  1  0.03854000  0.21266000  0.20659000  1
  H  H29  1  0.25359000  0.29436000  0.35598000  1
  H  H30  1  0.71646000  0.23621000  0.46035000  1
  H  H31  1  0.78026000  0.40102000  0.60721000  1
  H  H32  1  0.04272000  0.46200000  0.67630000  1
  H  H33  1  0.11392000  0.09504000  0.41027000  1
  H  H34  1  0.20590000  0.06163000  0.54554000  1
  H  H35  1  0.09390000  0.13988000  0.66733000  1
  H  H36  1  0.40726000  0.66190000  0.79714000  1
  H  H37  1  0.49318000  0.67110000  0.72591000  1
  H  H38  1  0.30065000  0.66218000  0.61834000  1
  H  H39  1  0.22929000  0.66883000  0.70036000  1
  H  H40  1  0.01252000  0.63883000  0.63003000  1
  H  H41  1  0.19631000  0.46184000  0.49023000  1
  H  H42  1  0.59247000  0.74624000  0.88909000  1
  H  H43  1  0.83091000  0.79459000  0.00651000  1
  H  H44  1  0.89714000  0.64497000  0.93926000  1
  H  H45  1  0.25654000  0.54078000  0.77638000  1
  H  H46  1  0.17400000  0.39380000  0.79490000  1
  H  H47  1  0.36682000  0.32408000  0.78636000  1
  H  H48  1  0.70356000  0.59064000  0.68550000  1
  H  H49  1  0.66028000  0.45513000  0.51714000  1
  H  H50  1  0.42667000  0.33290000  0.47353000  1
  H  H51  1  0.38984000  0.79850000  0.13625000  1
  H  H52  1  0.23291000  0.72690000  0.05572000  1
  H  H53  1  0.31692000  0.61907000  0.95726000  1
  H  H54  1  0.47057000  0.70107000  0.03180000  1
  H  H55  1  0.61686000  0.63003000  0.99067000  1
  H  H56  1  0.29474000  0.49051000  0.02916000  1
  H  H57  1  0.29631000  0.89088000  0.14411000  1
  H  H58  1  0.17461000  0.00814000  0.21313000  1
  H  H59  1  0.04135000  0.93995000  0.29476000  1
  H  H60  1  0.51978000  0.77679000  0.23616000  1
  H  H61  1  0.62038000  0.79435000  0.40078000  1
  H  H62  1  0.41847000  0.78533000  0.46129000  1
  H  H63  1  0.98207000  0.68629000  0.09528000  1
  H  H64  1  0.85677000  0.51722000  0.06182000  1
  H  H65  1  0.04642000  0.47293000  0.13984000  1
  H  H66  1  0.25320000  0.86401000  0.66143000  1
  H  H67  1  0.17680000  0.94478000  0.66981000  1
  H  H68  1  0.36012000  0.04287000  0.66122000  1
  H  H69  1  0.43854000  0.96748000  0.66814000  1
  H  H70  1  0.62600000  0.00859000  0.63871000  1
  H  H71  1  0.26569000  0.97111000  0.46154000  1
  H  H72  1  0.15215000  0.85574000  0.74508000  1
  H  H73  1  0.96147000  0.78734000  0.79341000  1
  H  H74  1  0.74643000  0.70565000  0.64403000  1
  H  H75  1  0.28356000  0.76380000  0.53966000  1
  H  H76  1  0.21974000  0.59898000  0.39280000  1
  H  H77  1  0.95729000  0.53801000  0.32371000  1
  H  H78  1  0.88609000  0.90497000  0.58974000  1
  H  H79  1  0.79410000  0.93837000  0.45447000  1
  H  H80  1  0.90611000  0.86013000  0.33269000  1
  H  H81  1  0.59275000  0.33810000  0.20286000  1
  H  H82  1  0.50682000  0.32890000  0.27410000  1
  H  H83  1  0.69937000  0.33783000  0.38167000  1
  H  H84  1  0.77072000  0.33117000  0.29964000  1
  H  H85  1  0.98748000  0.36117000  0.36998000  1
  H  H86  1  0.80369000  0.53816000  0.50977000  1
  H  H87  1  0.40755000  0.25377000  0.11093000  1
  H  H88  1  0.16909000  0.20541000  0.99350000  1
  H  H89  1  0.10287000  0.35503000  0.06074000  1
  H  H90  1  0.74348000  0.45923000  0.22363000  1
  H  H91  1  0.82601000  0.60621000  0.20512000  1
  H  H92  1  0.63319000  0.67593000  0.21366000  1
  H  H93  1  0.29644000  0.40936000  0.31451000  1
  H  H94  1  0.33973000  0.54488000  0.48288000  1
  H  H95  1  0.57333000  0.66710000  0.52647000  1
  C  C96  1  0.74886000  0.25038000  0.81211000  1
  C  C97  1  0.69124000  0.26281000  0.88656000  1
  C  C98  1  0.60361000  0.35886000  0.98071000  1
  C  C99  1  0.54936000  0.43108000  0.98899000  1
  C  C100  1  0.43444000  0.42685000  0.00504000  1
  C  C101  1  0.61540000  0.50472000  0.98312000  1
  C  C102  1  0.76735000  0.11088000  0.81913000  1
  C  C103  1  0.82983000  0.05224000  0.78323000  1
  C  C104  1  0.89943000  0.08733000  0.74213000  1
  C  C105  1  0.52447000  0.22173000  0.71541000  1
  C  C106  1  0.47664000  0.21373000  0.63237000  1
  C  C107  1  0.57964000  0.21966000  0.60156000  1
  C  C108  1  0.98141000  0.35903000  0.88935000  1
  C  C109  1  0.04235000  0.44371000  0.90407000  1
  C  C110  1  0.94639000  0.46688000  0.86449000  1
  C  C111  1  0.93701000  0.18793000  0.43921000  1
  C  C112  1  0.80506000  0.11326000  0.37727000  1
  C  C113  1  0.62293000  0.01951000  0.37891000  1
  C  C114  1  0.56034000  0.01116000  0.44246000  1
  C  C115  1  0.42943000  0.99531000  0.42214000  1
  C  C116  1  0.63222000  0.01668000  0.52158000  1
  C  C117  1  0.94841000  0.18072000  0.29317000  1
  C  C118  1  0.04677000  0.21643000  0.27046000  1
  C  C119  1  0.15751000  0.25756000  0.34646000  1
  C  C120  1  0.80914000  0.28477000  0.50714000  1
  C  C121  1  0.84425000  0.36797000  0.58206000  1
  C  C122  1  0.97811000  0.39899000  0.61859000  1
  C  C123  1  0.09253000  0.11043000  0.47066000  1
  C  C124  1  0.13887000  0.09569000  0.54047000  1
  C  C125  1  0.08232000  0.13531000  0.60291000  1
  C  C126  1  0.49779000  0.56143000  0.74894000  1
  C  C127  1  0.42761000  0.62354000  0.73616000  1
  C  C128  1  0.24386000  0.62181000  0.64048000  1
  C  C129  1  0.11786000  0.55781000  0.56858000  1
  C  C130  1  0.00703000  0.57787000  0.57311000  1
  C  C131  1  0.11098000  0.47861000  0.49510000  1
  C  C132  1  0.65472000  0.70783000  0.88766000  1
  C  C133  1  0.77558000  0.73061000  0.94637000  1
  C  C134  1  0.81061000  0.65446000  0.91171000  1
  C  C135  1  0.30235000  0.49371000  0.77807000  1
  C  C136  1  0.26279000  0.41874000  0.78657000  1
  C  C137  1  0.35991000  0.38187000  0.78085000  1
  C  C138  1  0.62194000  0.53000000  0.64050000  1
  C  C139  1  0.59844000  0.46009000  0.55617000  1
  C  C140  1  0.47960000  0.39738000  0.53335000  1
  C  C141  1  0.25115000  0.74963000  0.18790000  1
  C  C142  1  0.30876000  0.73719000  0.11344000  1
  C  C143  1  0.39639000  0.64114000  0.01929000  1
  C  C144  1  0.45065000  0.56893000  0.01103000  1
  C  C145  1  0.56557000  0.57316000  0.99498000  1
  C  C146  1  0.38461000  0.49528000  0.01689000  1
  C  C147  1  0.23266000  0.88913000  0.18089000  1
  C  C148  1  0.17018000  0.94777000  0.21678000  1
  C  C149  1  0.10059000  0.91268000  0.25788000  1
  C  C150  1  0.47553000  0.77827000  0.28459000  1
  C  C151  1  0.52337000  0.78627000  0.36764000  1
  C  C152  1  0.42037000  0.78034000  0.39845000  1
  C  C153  1  0.01859000  0.64097000  0.11066000  1
  C  C154  1  0.95765000  0.55629000  0.09593000  1
  C  C155  1  0.05362000  0.53313000  0.13552000  1
  C  C156  1  0.06300000  0.81208000  0.56080000  1
  C  C157  1  0.19495000  0.88674000  0.62273000  1
  C  C158  1  0.37708000  0.98050000  0.62111000  1
  C  C159  1  0.43967000  0.98884000  0.55754000  1
  C  C160  1  0.57057000  0.00469000  0.57786000  1
  C  C161  1  0.36779000  0.98332000  0.47843000  1
  C  C162  1  0.05159000  0.81928000  0.70683000  1
  C  C163  1  0.95323000  0.78357000  0.72954000  1
  C  C164  1  0.84251000  0.74245000  0.65355000  1
  C  C165  1  0.19086000  0.71523000  0.49286000  1
  C  C166  1  0.15575000  0.63203000  0.41795000  1
  C  C167  1  0.02190000  0.60101000  0.38141000  1
  C  C168  1  0.90747000  0.88957000  0.52934000  1
  C  C169  1  0.86113000  0.90431000  0.45954000  1
  C  C170  1  0.91768000  0.86469000  0.39709000  1
  C  C171  1  0.50222000  0.43858000  0.25107000  1
  C  C172  1  0.57240000  0.37646000  0.26384000  1
  C  C173  1  0.75616000  0.37820000  0.35954000  1
  C  C174  1  0.88216000  0.44220000  0.43143000  1
  C  C175  1  0.99298000  0.42214000  0.42691000  1
  C  C176  1  0.88904000  0.52140000  0.50492000  1
  C  C177  1  0.34528000  0.29217000  0.11234000  1
  C  C178  1  0.22444000  0.26940000  0.05365000  1
  C  C179  1  0.18940000  0.34555000  0.08830000  1
  C  C180  1  0.69765000  0.50629000  0.22193000  1
  C  C181  1  0.73722000  0.58127000  0.21344000  1
  C  C182  1  0.64009000  0.61813000  0.21915000  1
  C  C183  1  0.37806000  0.47000000  0.35950000  1
  C  C184  1  0.40157000  0.53992000  0.44385000  1
  C  C185  1  0.52041000  0.60262000  0.46665000  1
  N  N186  1  0.88372000  0.16459000  0.75020000  1
  N  N187  1  0.80407000  0.18031000  0.80058000  1
  N  N188  1  0.68771000  0.23134000  0.66145000  1
  N  N189  1  0.65278000  0.23158000  0.73161000  1
  N  N190  1  0.83086000  0.40140000  0.82712000  1
  N  N191  1  0.85427000  0.33452000  0.84192000  1
  N  N192  1  0.13376000  0.24969000  0.41550000  1
  N  N193  1  0.00370000  0.19945000  0.38093000  1
  N  N194  1  0.02644000  0.33907000  0.57042000  1
  N  N195  1  0.92135000  0.26870000  0.50067000  1
  N  N196  1  0.00399000  0.17273000  0.57477000  1
  N  N197  1  0.01256000  0.15789000  0.49337000  1
  N  N198  1  0.71828000  0.58528000  0.83472000  1
  N  N199  1  0.62277000  0.61995000  0.81868000  1
  N  N200  1  0.45613000  0.42990000  0.76883000  1
  N  N201  1  0.42069000  0.49983000  0.76808000  1
  N  N202  1  0.42952000  0.42550000  0.59872000  1
  N  N203  1  0.51947000  0.50707000  0.66519000  1
  N  N204  1  0.11629000  0.83541000  0.24980000  1
  N  N205  1  0.19594000  0.81970000  0.19943000  1
  N  N206  1  0.31229000  0.76866000  0.33856000  1
  N  N207  1  0.34722000  0.76842000  0.26839000  1
  N  N208  1  0.16914000  0.59860000  0.17288000  1
  N  N209  1  0.14574000  0.66549000  0.15810000  1
  N  N210  1  0.86625000  0.75032000  0.58452000  1
  N  N211  1  0.99631000  0.80055000  0.61908000  1
  N  N212  1  0.97357000  0.66093000  0.42958000  1
  N  N213  1  0.07865000  0.73130000  0.49934000  1
  N  N214  1  0.99601000  0.82727000  0.42524000  1
  N  N215  1  0.98745000  0.84212000  0.50665000  1
  N  N216  1  0.28172000  0.41472000  0.16529000  1
  N  N217  1  0.37725000  0.38006000  0.18134000  1
  N  N218  1  0.54387000  0.57010000  0.23117000  1
  N  N219  1  0.57931000  0.50017000  0.23193000  1
  N  N220  1  0.57049000  0.57450000  0.40128000  1
  N  N221  1  0.48053000  0.49293000  0.33482000  1
  O  O222  1  0.65159000  0.33737000  0.90789000  1
  O  O223  1  0.74404000  0.09208000  0.43034000  1
  O  O224  1  0.31403000  0.57040000  0.66169000  1
  O  O225  1  0.34842000  0.66263000  0.09212000  1
  O  O226  1  0.25596000  0.90792000  0.56966000  1
  O  O227  1  0.68598000  0.42960000  0.33831000  1
