# generated using pymatgen
data_H24C39N8
_symmetry_space_group_name_H-M   'P 1'
_cell_length_a   30.86680000
_cell_length_b   45.70710000
_cell_length_c   45.70710000
_cell_angle_alpha   90.00000000
_cell_angle_beta   90.00000000
_cell_angle_gamma   90.00000000
_symmetry_Int_Tables_number   1
_chemical_formula_structural   H24C39N8
_chemical_formula_sum   'H192 C312 N64'
_cell_volume   64485.03538919
_cell_formula_units_Z   8
loop_
 _symmetry_equiv_pos_site_id
 _symmetry_equiv_pos_as_xyz
  1  'x, y, z'
loop_
 _atom_site_type_symbol
 _atom_site_label
 _atom_site_symmetry_multiplicity
 _atom_site_fract_x
 _atom_site_fract_y
 _atom_site_fract_z
 _atom_site_occupancy
  H  9  1  0.01145600  0.82541800  0.82860400  1
  H  10  1  0.02228600  0.86196800  0.86454600  1
  H  11  1  0.02170100  0.89911600  0.90082000  1
  H  12  1  0.00980300  0.93618900  0.93604000  1
  H  13  1  0.01377700  0.32679800  0.32875000  1
  H  14  1  0.02315100  0.36309400  0.36477500  1
  H  15  1  0.02180900  0.40008900  0.40054400  1
  H  16  1  0.00937100  0.43686800  0.43587500  1
  H  37  1  0.05369000  0.29959000  0.27739000  1
  H  54  1  0.13681100  0.08617100  0.08478800  1
  H  55  1  0.14044400  0.17713100  0.17459200  1
  H  56  1  0.12617500  0.17640400  0.08491900  1
  H  57  1  0.12375000  0.08538600  0.17471500  1
  H  60  1  0.10992200  0.21491200  0.20917900  1
  H  61  1  0.10196900  0.04699000  0.05163900  1
  H  62  1  0.15476600  0.04763800  0.20918700  1
  H  63  1  0.16049400  0.21547600  0.05146100  1
  H  72  1  0.12644700  0.58613600  0.67687900  1
  H  73  1  0.12321600  0.67756400  0.58750100  1
  H  74  1  0.13903400  0.67648300  0.67633000  1
  H  75  1  0.13733900  0.58619900  0.58515800  1
  H  78  1  0.15411600  0.71546200  0.55306900  1
  H  79  1  0.16113200  0.54662800  0.70983900  1
  H  80  1  0.10306100  0.54726700  0.55135400  1
  H  81  1  0.10602900  0.71524300  0.71073800  1
  H  83  1  0.14626900  0.78686600  0.50822300  1
  H  84  1  0.14132700  0.74858100  0.51161800  1
  H  85  1  0.15419000  0.77040300  0.54270700  1
  H  87  1  0.11893800  0.28669700  0.25303500  1
  H  88  1  0.12370300  0.24839000  0.24985200  1
  H  89  1  0.11030000  0.27002300  0.21873300  1
  H  91  1  0.14649400  0.97627200  0.25390300  1
  H  92  1  0.14176600  0.01455500  0.25041400  1
  H  93  1  0.15447500  0.99262200  0.21937500  1
  H  102  1  0.00450200  0.18686400  0.18595400  1
  H  103  1  0.99197800  0.15011800  0.15058400  1
  H  104  1  0.99062000  0.11308600  0.11477900  1
  H  105  1  0.00004500  0.07678600  0.07875000  1
  H  106  1  0.26285500  0.18573900  0.07799800  1
  H  107  1  0.27276100  0.14935700  0.11388600  1
  H  108  1  0.27187800  0.11231300  0.14969500  1
  H  109  1  0.25983600  0.07561600  0.18519100  1
  H  135  1  0.50092000  0.57737800  0.07724700  1
  H  136  1  0.49078300  0.61343200  0.11334200  1
  H  137  1  0.49125900  0.64998200  0.14915800  1
  H  138  1  0.50235800  0.68591900  0.18524200  1
  H  139  1  0.63876700  0.67614800  0.17664600  1
  H  140  1  0.63756200  0.58619500  0.08513600  1
  H  141  1  0.62445400  0.58541600  0.17504400  1
  H  142  1  0.76071300  0.57528000  0.18400100  1
  H  143  1  0.77211100  0.61217600  0.14848100  1
  H  144  1  0.62435600  0.67727100  0.08694200  1
  H  145  1  0.77207200  0.64961800  0.11240600  1
  H  146  1  0.76058700  0.68672600  0.07711400  1
  H  152  1  0.60341800  0.54749000  0.05108900  1
  H  153  1  0.60562100  0.71501300  0.21094100  1
  H  154  1  0.65566500  0.71483400  0.05280700  1
  H  155  1  0.65585900  0.54773500  0.20905800  1
  H  180  1  0.76214800  0.07581700  0.68317600  1
  H  181  1  0.77246400  0.11158300  0.64680500  1
  H  182  1  0.77216900  0.14826700  0.61116100  1
  H  183  1  0.76133500  0.18473800  0.57560800  1
  H  184  1  0.62485900  0.17660800  0.58540300  1
  H  185  1  0.62562300  0.08630500  0.67661900  1
  H  186  1  0.63653800  0.08614800  0.58486700  1
  H  187  1  0.49984700  0.07562100  0.58024900  1
  H  188  1  0.49059500  0.11176900  0.61647700  1
  H  189  1  0.64062300  0.17754400  0.67421600  1
  H  190  1  0.49213700  0.14905900  0.65202900  1
  H  191  1  0.50477500  0.18633000  0.68681800  1
  H  197  1  0.65959800  0.04716900  0.71038100  1
  H  198  1  0.65832500  0.21525800  0.55102600  1
  H  199  1  0.61017600  0.21541400  0.70876000  1
  H  200  1  0.60158100  0.04684100  0.55186100  1
  H  209  1  0.25917600  0.68595900  0.57516400  1
  H  210  1  0.27143300  0.64863400  0.60993800  1
  H  211  1  0.27263600  0.61136400  0.64547700  1
  H  212  1  0.26306300  0.57527300  0.68171600  1
  H  213  1  0.00265900  0.68512100  0.68632400  1
  H  214  1  0.99141100  0.64871500  0.65074700  1
  H  215  1  0.99075300  0.61198800  0.61510700  1
  H  216  1  0.00072500  0.57613800  0.57877000  1
  H  242  1  0.51010100  0.93721700  0.43473300  1
  H  243  1  0.52186800  0.90026600  0.39934000  1
  H  244  1  0.52226600  0.86289400  0.36328500  1
  H  245  1  0.51128700  0.82586200  0.32786800  1
  H  246  1  0.37492400  0.83525300  0.33687300  1
  H  247  1  0.37393900  0.92716400  0.42503400  1
  H  248  1  0.38801200  0.83640600  0.42689400  1
  H  249  1  0.25147500  0.82667600  0.43455100  1
  H  250  1  0.24094900  0.86252800  0.39832300  1
  H  251  1  0.38811900  0.92637200  0.33530700  1
  H  252  1  0.24098000  0.89900000  0.36249000  1
  H  253  1  0.25158000  0.93507700  0.32650000  1
  H  259  1  0.40502400  0.96488400  0.45918400  1
  H  260  1  0.40679900  0.79762600  0.30292200  1
  H  261  1  0.35443600  0.96502200  0.30100100  1
  H  262  1  0.35421200  0.79747500  0.46093500  1
  H  287  1  0.87368200  0.92709400  0.92512700  1
  H  288  1  0.87507900  0.83564900  0.83649500  1
  H  289  1  0.88978700  0.92730600  0.83714500  1
  H  290  1  0.75382200  0.93563900  0.82482100  1
  H  291  1  0.74159200  0.89857700  0.85988800  1
  H  292  1  0.88664800  0.83653700  0.92720300  1
  H  293  1  0.74042300  0.86165300  0.89579200  1
  H  294  1  0.75002500  0.82581900  0.93227900  1
  H  300  1  0.90704200  0.79813800  0.80247400  1
  H  301  1  0.90469600  0.96472700  0.95943900  1
  H  302  1  0.85207700  0.79729600  0.96044300  1
  H  303  1  0.85889000  0.96496500  0.80249600  1
  H  328  1  0.75084800  0.43564800  0.32792900  1
  H  329  1  0.74098600  0.39934200  0.36388200  1
  H  330  1  0.74186100  0.36240700  0.39971900  1
  H  331  1  0.75383800  0.32575200  0.43524300  1
  H  332  1  0.88994900  0.33541400  0.42477200  1
  H  333  1  0.88754200  0.42635400  0.33482300  1
  H  334  1  0.87700300  0.33614000  0.33475500  1
  H  335  1  0.87341000  0.42722000  0.42457300  1
  H  341  1  0.85314900  0.46539100  0.30132300  1
  H  342  1  0.85881800  0.29765200  0.45925000  1
  H  343  1  0.90407400  0.46501100  0.45918200  1
  H  344  1  0.91193100  0.29700000  0.30153900  1
  H  369  1  0.25243700  0.32509800  0.93335800  1
  H  370  1  0.24125400  0.36159300  0.89738500  1
  H  371  1  0.24153700  0.39879100  0.86111100  1
  H  372  1  0.25314500  0.43596900  0.82594100  1
  H  373  1  0.38933700  0.42712400  0.83662000  1
  H  374  1  0.38871800  0.33566100  0.92518200  1
  H  375  1  0.37320300  0.42722900  0.92455800  1
  H  376  1  0.50907700  0.43574400  0.93723400  1
  H  377  1  0.52162200  0.39875800  0.90215200  1
  H  378  1  0.37722700  0.33649200  0.83441200  1
  H  379  1  0.52313400  0.36190000  0.86624300  1
  H  380  1  0.51393000  0.32606500  0.82972600  1
  H  386  1  0.35718300  0.29823800  0.95936000  1
  H  387  1  0.35805400  0.46471300  0.80240600  1
  H  388  1  0.41225500  0.29733200  0.80122100  1
  H  389  1  0.40381500  0.46495100  0.95929700  1
  H  393  1  0.96033500  0.04948900  0.02723300  1
  H  395  1  0.89529500  0.03651600  0.00275600  1
  H  396  1  0.89062300  0.99819900  0.99974300  1
  H  397  1  0.90403500  0.01971300  0.96853600  1
  H  404  1  0.46375700  0.71350300  0.23489500  1
  H  407  1  0.39828200  0.72624300  0.25895100  1
  H  408  1  0.39347100  0.76453100  0.26223000  1
  H  409  1  0.40641000  0.74277900  0.29336600  1
  H  417  1  0.80043900  0.21345500  0.52757000  1
  H  420  1  0.86637400  0.22606800  0.50385100  1
  H  421  1  0.87149600  0.26433700  0.50043800  1
  H  422  1  0.85852000  0.24253100  0.46936000  1
  H  430  1  0.30251000  0.54950300  0.73480200  1
  H  433  1  0.36731700  0.53676100  0.75964900  1
  H  434  1  0.37224800  0.49844700  0.76250200  1
  H  435  1  0.35840100  0.51977200  0.79375400  1
  H  443  1  0.55408000  0.29990700  0.77729700  1
  H  446  1  0.61937400  0.28689400  0.75306200  1
  H  447  1  0.62391300  0.24858300  0.74977400  1
  H  448  1  0.61080100  0.27034900  0.71869100  1
  H  456  1  0.21215900  0.79963400  0.48452200  1
  H  465  1  0.71142400  0.46335200  0.27710600  1
  H  468  1  0.64637400  0.47624100  0.25264100  1
  H  469  1  0.64179300  0.51454300  0.24942500  1
  H  470  1  0.65501700  0.49283600  0.21831200  1
  H  478  1  0.45995000  0.04924900  0.52752600  1
  H  481  1  0.39512000  0.03634500  0.50280600  1
  H  482  1  0.39065600  0.99803900  0.49954800  1
  H  483  1  0.40403200  0.01978300  0.46848900  1
  H  489  1  0.96411900  0.71392800  0.73464200  1
  H  491  1  0.89863800  0.72657600  0.75874400  1
  H  492  1  0.89371700  0.76485900  0.76201200  1
  H  493  1  0.90676300  0.74313800  0.79314700  1
  H  500  1  0.30206900  0.21352800  0.02694200  1
  H  503  1  0.36687600  0.22638000  0.00221100  1
  H  504  1  0.37152200  0.26469200  0.99918800  1
  H  505  1  0.35803800  0.24316300  0.96799800  1
  H  517  1  0.71048400  0.79941800  0.98489000  1
  H  520  1  0.64571600  0.78644800  0.00961800  1
  H  521  1  0.64123900  0.74812800  0.01268200  1
  H  522  1  0.65462800  0.76971800  0.04384800  1
  H  530  1  0.46132700  0.54946300  0.02763000  1
  H  533  1  0.39555100  0.53651400  0.00388900  1
  H  534  1  0.39080100  0.49821100  0.00057000  1
  H  535  1  0.40361100  0.51999300  0.96944600  1
  H  543  1  0.80145600  0.04951000  0.73438200  1
  H  546  1  0.86704100  0.03675900  0.75843700  1
  H  547  1  0.87201400  0.99846100  0.76160300  1
  H  548  1  0.85883100  0.02006900  0.79278000  1
  H  556  1  0.21227400  0.96343600  0.27766600  1
  H  563  1  0.96095400  0.54918300  0.52798800  1
  H  565  1  0.89535000  0.53628600  0.50403700  1
  H  566  1  0.89079800  0.49799900  0.50048400  1
  H  567  1  0.90354900  0.52000000  0.46950000  1
  C  1  1  0.02131900  0.10760600  0.10846600  1
  C  2  1  0.02744800  0.08620600  0.08711400  1
  C  3  1  0.03103800  0.17730300  0.17653200  1
  C  4  1  0.02315600  0.15563100  0.15567400  1
  C  5  1  0.02964200  0.67583500  0.67722500  1
  C  6  1  0.02243200  0.65432700  0.65616000  1
  C  7  1  0.02155700  0.60672400  0.60884800  1
  C  8  1  0.02800000  0.58558000  0.58729600  1
  C  17  1  0.02165900  0.02943500  0.02338500  1
  C  21  1  0.02530900  0.73403600  0.73911200  1
  C  25  1  0.03703600  0.28285100  0.26760800  1
  C  26  1  0.03420700  0.24027100  0.23618900  1
  C  28  1  0.02223400  0.52921900  0.52338700  1
  C  32  1  0.05862300  0.14220300  0.14202600  1
  C  33  1  0.05787200  0.12087700  0.12081500  1
  C  34  1  0.05790400  0.62005900  0.62142400  1
  C  35  1  0.05832200  0.64123500  0.64277100  1
  C  36  1  0.05882200  0.26331800  0.24863300  1
  C  38  1  0.06955200  0.07784100  0.07753400  1
  C  39  1  0.07388800  0.18586600  0.18407900  1
  C  40  1  0.07354100  0.05617800  0.05597100  1
  C  41  1  0.08017600  0.20814800  0.20463300  1
  C  42  1  0.07220000  0.68455800  0.68545800  1
  C  43  1  0.07022300  0.57751600  0.57772600  1
  C  44  1  0.07445300  0.55606000  0.55594600  1
  C  45  1  0.07721200  0.70652400  0.70663800  1
  C  46  1  0.16229400  0.11299400  0.14833800  1
  C  47  1  0.16314900  0.14894900  0.11254200  1
  C  48  1  0.15704400  0.17078700  0.09078500  1
  C  49  1  0.15495800  0.09096900  0.16968200  1
  C  50  1  0.10154000  0.14946000  0.14853000  1
  C  51  1  0.10021000  0.11354800  0.11271200  1
  C  52  1  0.10602500  0.09175700  0.09087400  1
  C  53  1  0.10917000  0.17151400  0.16978900  1
  C  58  1  0.13179900  0.13123600  0.13037500  1
  C  59  1  0.18444400  0.05440500  0.20444100  1
  C  64  1  0.10034700  0.61304200  0.61339000  1
  C  65  1  0.10105200  0.64877600  0.64958600  1
  C  66  1  0.10796100  0.67068700  0.67118200  1
  C  67  1  0.10647100  0.59151800  0.59129300  1
  C  68  1  0.16189400  0.64909100  0.61285000  1
  C  69  1  0.16312400  0.61291300  0.64841500  1
  C  70  1  0.15723200  0.59130600  0.67042900  1
  C  71  1  0.15443000  0.67152300  0.59195600  1
  C  76  1  0.13158900  0.63100700  0.63112200  1
  C  77  1  0.18376100  0.70834500  0.55737700  1
  C  82  1  0.15939600  0.76762200  0.51925400  1
  C  86  1  0.10553900  0.26739800  0.24224700  1
  C  90  1  0.15972300  0.99545300  0.24281800  1
  C  94  1  0.20512300  0.12022800  0.14154500  1
  C  95  1  0.20559300  0.14157600  0.12034600  1
  C  96  1  0.19333300  0.18473000  0.07724400  1
  C  97  1  0.23556300  0.17631600  0.08652200  1
  C  98  1  0.24197600  0.15485900  0.10778200  1
  C  99  1  0.24076900  0.10680100  0.15497900  1
  C  100  1  0.23317300  0.08516200  0.17592100  1
  C  101  1  0.19043000  0.07662900  0.18377400  1
  C  110  1  0.18904900  0.20645800  0.05576500  1
  C  111  1  0.66249400  0.64930800  0.11317100  1
  C  112  1  0.70520400  0.64184100  0.12014400  1
  C  113  1  0.70522300  0.62024700  0.14112400  1
  C  114  1  0.66253300  0.61302200  0.14839700  1
  C  115  1  0.65557400  0.59093000  0.16968800  1
  C  116  1  0.69130900  0.57651400  0.18335100  1
  C  117  1  0.73391100  0.58493300  0.17502800  1
  C  118  1  0.74112300  0.60665100  0.15407500  1
  C  119  1  0.74106700  0.65530200  0.10701300  1
  C  120  1  0.73381000  0.67715900  0.08621000  1
  C  121  1  0.69118900  0.68585800  0.07822700  1
  C  122  1  0.65548700  0.67154700  0.09204100  1
  C  123  1  0.60042500  0.61355400  0.11277000  1
  C  124  1  0.55792600  0.62094200  0.12034600  1
  C  125  1  0.55820100  0.64200700  0.14180400  1
  C  126  1  0.60089400  0.64909600  0.14916700  1
  C  127  1  0.52225300  0.65527800  0.15494500  1
  C  128  1  0.52937100  0.67649200  0.17632700  1
  C  129  1  0.57189200  0.68471100  0.18514400  1
  C  130  1  0.60771100  0.67070700  0.17107700  1
  C  131  1  0.60665800  0.59186600  0.09085200  1
  C  132  1  0.57046400  0.57808500  0.07699300  1
  C  133  1  0.52817500  0.58662400  0.08601100  1
  C  134  1  0.52162800  0.60790700  0.10740500  1
  C  147  1  0.63154900  0.63123800  0.13087600  1
  C  148  1  0.57682000  0.70634900  0.20666700  1
  C  149  1  0.57479200  0.55634600  0.05550600  1
  C  150  1  0.68534400  0.70815900  0.05765800  1
  C  151  1  0.68551900  0.55437700  0.20410400  1
  C  156  1  0.60165900  0.14922900  0.64890100  1
  C  157  1  0.55872600  0.14154500  0.64292800  1
  C  158  1  0.55783800  0.12006000  0.62187700  1
  C  159  1  0.60010700  0.11305200  0.61335500  1
  C  160  1  0.60580300  0.09140500  0.59135600  1
  C  161  1  0.56927800  0.07728700  0.57829300  1
  C  162  1  0.52726200  0.08522100  0.58839000  1
  C  163  1  0.52124900  0.10650700  0.60987900  1
  C  164  1  0.52332200  0.15487200  0.65674900  1
  C  165  1  0.53127300  0.17686300  0.67725500  1
  C  166  1  0.57412800  0.18587000  0.68425900  1
  C  167  1  0.60935300  0.17160800  0.66980800  1
  C  168  1  0.66287300  0.11298100  0.64838000  1
  C  169  1  0.70538500  0.11984900  0.64038600  1
  C  170  1  0.70517100  0.14102100  0.61903500  1
  C  171  1  0.66252000  0.14871400  0.61216500  1
  C  172  1  0.74121000  0.15399900  0.60571500  1
  C  173  1  0.73424500  0.17555200  0.58465900  1
  C  174  1  0.69178800  0.18444300  0.57637200  1
  C  175  1  0.65586600  0.17068100  0.59058200  1
  C  176  1  0.65654300  0.09151200  0.67050600  1
  C  177  1  0.69266000  0.07742300  0.68414300  1
  C  178  1  0.73496100  0.08533700  0.67460800  1
  C  179  1  0.74160500  0.10642200  0.65302900  1
  C  192  1  0.63180800  0.13104900  0.63061300  1
  C  193  1  0.68706800  0.20647200  0.55521700  1
  C  194  1  0.68823100  0.05599900  0.70593100  1
  C  195  1  0.58043900  0.20846900  0.70446500  1
  C  196  1  0.57314000  0.05588200  0.55646000  1
  C  201  1  0.20476100  0.64129400  0.61890100  1
  C  202  1  0.20545700  0.61980700  0.63995300  1
  C  203  1  0.24193200  0.60618100  0.65202500  1
  C  204  1  0.23572700  0.58493500  0.67352700  1
  C  205  1  0.19363200  0.57711600  0.68356700  1
  C  206  1  0.18980600  0.68569800  0.57757700  1
  C  207  1  0.23257100  0.67655100  0.58464800  1
  C  208  1  0.24029900  0.65451700  0.60514600  1
  C  217  1  0.18958800  0.55572300  0.70539300  1
  C  218  1  0.35063200  0.89893800  0.36265200  1
  C  219  1  0.30803100  0.89152200  0.36993600  1
  C  220  1  0.30800700  0.87047500  0.39140900  1
  C  221  1  0.35059000  0.86339900  0.39907100  1
  C  222  1  0.35705000  0.84183600  0.42108500  1
  C  223  1  0.32100400  0.82787700  0.43495000  1
  C  224  1  0.27863000  0.83607500  0.42580700  1
  C  225  1  0.27185300  0.85723200  0.40432400  1
  C  226  1  0.27190300  0.90454600  0.35676700  1
  C  227  1  0.27872700  0.92585100  0.33543800  1
  C  228  1  0.32112900  0.93444900  0.32673000  1
  C  229  1  0.35714100  0.92066400  0.34080500  1
  C  230  1  0.41228700  0.89946800  0.39865300  1
  C  231  1  0.45506100  0.89222000  0.39163000  1
  C  232  1  0.45529100  0.87062600  0.37065100  1
  C  233  1  0.41267600  0.86316500  0.36341600  1
  C  234  1  0.49134000  0.85719900  0.35771200  1
  C  235  1  0.48437400  0.83539300  0.33681600  1
  C  236  1  0.44186900  0.82670200  0.32854400  1
  C  237  1  0.40597600  0.84096900  0.34218500  1
  C  238  1  0.40511500  0.92160900  0.41986700  1
  C  239  1  0.44070300  0.93603500  0.43370000  1
  C  240  1  0.48339000  0.92756600  0.42563400  1
  C  241  1  0.49081800  0.90581000  0.40476000  1
  C  254  1  0.38150700  0.88124500  0.38095400  1
  C  255  1  0.43637500  0.80444300  0.30787100  1
  C  256  1  0.43472900  0.95823500  0.45436900  1
  C  257  1  0.32573200  0.95623400  0.30530900  1
  C  258  1  0.32554400  0.80629900  0.45657900  1
  C  263  1  0.84993800  0.86319600  0.89865000  1
  C  264  1  0.80759500  0.87002400  0.89014500  1
  C  265  1  0.80827600  0.89127000  0.86884700  1
  C  266  1  0.85113700  0.89899100  0.86268600  1
  C  267  1  0.85857900  0.92127200  0.84162400  1
  C  268  1  0.82318800  0.93538800  0.82720600  1
  C  269  1  0.78043300  0.92628400  0.83434900  1
  C  270  1  0.77272300  0.90440400  0.85501500  1
  C  271  1  0.77113200  0.85652100  0.90236900  1
  C  272  1  0.77735600  0.83541700  0.92400900  1
  C  273  1  0.81946600  0.82759900  0.93402300  1
  C  274  1  0.85585100  0.84171800  0.92078600  1
  C  275  1  0.91272400  0.86297700  0.86371400  1
  C  276  1  0.95529100  0.87005200  0.87142600  1
  C  277  1  0.95492800  0.89149100  0.89256100  1
  C  278  1  0.91212200  0.89901700  0.89921800  1
  C  279  1  0.99063300  0.90483700  0.90599600  1
  C  280  1  0.98312000  0.92668700  0.92675200  1
  C  281  1  0.94040800  0.93551000  0.93437700  1
  C  282  1  0.90486800  0.92126100  0.92030700  1
  C  283  1  0.90610900  0.84107700  0.84216600  1
  C  284  1  0.94205000  0.82672900  0.82867400  1
  C  285  1  0.98451300  0.83502100  0.83743400  1
  C  286  1  0.99138800  0.85653600  0.85864700  1
  C  295  1  0.88145800  0.88109200  0.88113400  1
  C  296  1  0.93438800  0.95792500  0.95480300  1
  C  297  1  0.93661400  0.80476100  0.80769000  1
  C  298  1  0.82355700  0.80624400  0.95588100  1
  C  299  1  0.82922400  0.95796900  0.80692900  1
  C  304  1  0.91224200  0.39949300  0.39850900  1
  C  305  1  0.95514800  0.39221000  0.39200200  1
  C  306  1  0.95589000  0.37085900  0.37081300  1
  C  307  1  0.91355400  0.36351700  0.36271600  1
  C  308  1  0.90778000  0.34173000  0.34085900  1
  C  309  1  0.94427300  0.32782200  0.32751300  1
  C  310  1  0.98635700  0.33620100  0.33710900  1
  C  311  1  0.99245400  0.35759800  0.35846700  1
  C  312  1  0.99064000  0.40563500  0.40562400  1
  C  313  1  0.98280900  0.42732300  0.42647200  1
  C  314  1  0.93998300  0.43593000  0.43402600  1
  C  315  1  0.90467000  0.42157700  0.41975700  1
  C  316  1  0.85060900  0.39893300  0.36250800  1
  C  317  1  0.80816900  0.39158900  0.37034000  1
  C  318  1  0.80863500  0.37027300  0.39156500  1
  C  319  1  0.85145800  0.36302600  0.39836000  1
  C  320  1  0.77296300  0.35688500  0.40500900  1
  C  321  1  0.78052400  0.33527400  0.42597700  1
  C  322  1  0.82325300  0.32671500  0.43383600  1
  C  323  1  0.85875000  0.34101700  0.41973100  1
  C  324  1  0.85668400  0.42074400  0.34071500  1
  C  325  1  0.82037600  0.43465900  0.32715900  1
  C  326  1  0.77815600  0.42624900  0.33646200  1
  C  327  1  0.77176700  0.40483600  0.35776300  1
  C  336  1  0.88197000  0.38124200  0.38036700  1
  C  337  1  0.82917200  0.30449700  0.45452400  1
  C  338  1  0.82461700  0.45634900  0.30563900  1
  C  339  1  0.93379500  0.45823000  0.45459000  1
  C  340  1  0.94035600  0.30616000  0.30593000  1
  C  345  1  0.41362200  0.36323900  0.86307100  1
  C  346  1  0.45588800  0.37014400  0.87169100  1
  C  347  1  0.45501300  0.39137000  0.89300300  1
  C  348  1  0.41209300  0.39900800  0.89907600  1
  C  349  1  0.40445700  0.42125600  0.92014100  1
  C  350  1  0.43972100  0.43540500  0.93466800  1
  C  351  1  0.48254700  0.42636200  0.92763000  1
  C  352  1  0.49044200  0.40453200  0.90694800  1
  C  353  1  0.49249000  0.35671200  0.85957300  1
  C  354  1  0.48650000  0.33560400  0.83791300  1
  C  355  1  0.44449300  0.32770800  0.82776800  1
  C  356  1  0.40795600  0.34174500  0.84091000  1
  C  357  1  0.35081000  0.36283800  0.89798900  1
  C  358  1  0.30818000  0.36981500  0.89034900  1
  C  359  1  0.30837300  0.39126900  0.86923000  1
  C  360  1  0.35112500  0.39889600  0.86251300  1
  C  361  1  0.27256100  0.40457800  0.85588400  1
  C  362  1  0.27989900  0.42649100  0.83516100  1
  C  363  1  0.32254300  0.43540900  0.82747900  1
  C  364  1  0.35820000  0.42119900  0.84146200  1
  C  365  1  0.35763300  0.34099100  0.91955200  1
  C  366  1  0.32182900  0.32657700  0.93312800  1
  C  367  1  0.27928200  0.33475100  0.92444600  1
  C  368  1  0.27220600  0.35622400  0.90321800  1
  C  381  1  0.38193800  0.38104600  0.88056100  1
  C  382  1  0.32839800  0.45787200  0.80708200  1
  C  383  1  0.32752300  0.30466100  0.95412700  1
  C  384  1  0.44069000  0.30635000  0.80587400  1
  C  385  1  0.43351400  0.45796800  0.95493800  1
  C  390  1  0.97709800  0.03277200  0.01749800  1
  C  391  1  0.95547900  0.01317700  0.99850500  1
  C  392  1  0.98026300  0.99016900  0.98613300  1
  C  394  1  0.90876200  0.01718600  0.99206400  1
  C  399  1  0.52499100  0.73355300  0.23937000  1
  C  400  1  0.48032200  0.73016800  0.24487000  1
  C  401  1  0.45834000  0.74960700  0.26384300  1
  C  402  1  0.48286100  0.77254200  0.27659400  1
  C  406  1  0.41152600  0.74549800  0.26989700  1
  C  412  1  0.73947700  0.23385800  0.52293400  1
  C  413  1  0.78415900  0.23025100  0.51760600  1
  C  414  1  0.80652900  0.24962000  0.49876000  1
  C  415  1  0.78239000  0.27270100  0.48596800  1
  C  419  1  0.85333400  0.24533600  0.49281100  1
  C  425  1  0.24125600  0.52930900  0.73836400  1
  C  426  1  0.28573200  0.53275500  0.74447200  1
  C  427  1  0.30727100  0.51319600  0.76354800  1
  C  428  1  0.28251200  0.49008800  0.77576300  1
  C  432  1  0.35389800  0.51733500  0.77019700  1
  C  438  1  0.49275900  0.27990200  0.77316800  1
  C  439  1  0.53737000  0.28324700  0.76743200  1
  C  440  1  0.55913400  0.26370500  0.74844800  1
  C  441  1  0.53446400  0.24073300  0.73592200  1
  C  445  1  0.60590600  0.26766700  0.74218600  1
  C  451  1  0.27318400  0.77929800  0.48908600  1
  C  452  1  0.22851100  0.78286900  0.49448300  1
  C  453  1  0.20622100  0.76344500  0.51331400  1
  C  454  1  0.23042700  0.74035500  0.52602900  1
  C  460  1  0.77282000  0.48325300  0.27301400  1
  C  461  1  0.72821500  0.47997800  0.26723800  1
  C  462  1  0.70660700  0.49948400  0.24814700  1
  C  463  1  0.73144900  0.52235400  0.23555800  1
  C  467  1  0.65985100  0.49549400  0.24181600  1
  C  473  1  0.52142700  0.02943900  0.52359400  1
  C  474  1  0.47686500  0.03267700  0.51766300  1
  C  475  1  0.45543700  0.01317200  0.49847600  1
  C  476  1  0.48041200  0.99034000  0.48593700  1
  C  480  1  0.40871700  0.01711500  0.49200600  1
  C  486  1  0.98064200  0.73061900  0.74459700  1
  C  487  1  0.95863400  0.75002900  0.76358800  1
  C  488  1  0.98313300  0.77295800  0.77637100  1
  C  490  1  0.91184000  0.74585700  0.76967400  1
  C  495  1  0.24062100  0.23338800  0.02304400  1
  C  496  1  0.28519800  0.23016500  0.01715400  1
  C  497  1  0.30666400  0.24971200  0.99803000  1
  C  498  1  0.28172400  0.27259900  0.98555500  1
  C  502  1  0.35336600  0.24570300  0.99153000  1
  C  508  1  0.99245100  0.27943800  0.27339500  1
  C  512  1  0.77197800  0.77961100  0.98872700  1
  C  513  1  0.72742200  0.78281900  0.99469200  1
  C  514  1  0.70603000  0.76324600  0.01382600  1
  C  515  1  0.73102800  0.74036400  0.02625500  1
  C  519  1  0.65931000  0.76716200  0.02031800  1
  C  525  1  0.52247000  0.52927200  0.02313300  1
  C  526  1  0.47778200  0.53272000  0.01770700  1
  C  527  1  0.45562500  0.51321100  0.99889700  1
  C  528  1  0.47998100  0.49017300  0.98621600  1
  C  532  1  0.40879200  0.51727400  0.99290800  1
  C  538  1  0.74037400  0.02919200  0.73863100  1
  C  539  1  0.78498800  0.03273600  0.74424300  1
  C  540  1  0.80708000  0.01325700  0.76312400  1
  C  541  1  0.78274700  0.99012500  0.77565800  1
  C  545  1  0.85384200  0.01743300  0.76928900  1
  C  551  1  0.27345000  0.98352900  0.27297500  1
  C  552  1  0.22873600  0.98011200  0.26763700  1
  C  553  1  0.20657700  0.99953100  0.24873100  1
  C  554  1  0.23096500  0.02245300  0.23586500  1
  C  560  1  0.97754100  0.53257500  0.51793900  1
  C  561  1  0.95555000  0.51315200  0.49894800  1
  C  562  1  0.98007800  0.49028400  0.48610400  1
  C  564  1  0.90870700  0.51714700  0.49294900  1
  N  18  1  0.02314600  0.98867500  0.99295700  1
  N  19  1  0.04293500  0.00689700  0.01058300  1
  N  20  1  0.03938100  0.04725800  0.04256200  1
  N  22  1  0.02614500  0.77451600  0.76993400  1
  N  23  1  0.04630200  0.75645300  0.75232500  1
  N  24  1  0.04361400  0.71619700  0.72018300  1
  N  27  1  0.04751900  0.22019300  0.21739300  1
  N  29  1  0.02309200  0.48873100  0.49254700  1
  N  30  1  0.04322800  0.50679400  0.51017400  1
  N  31  1  0.04039000  0.54686000  0.54258900  1
  N  398  1  0.96716800  0.96996900  0.96740500  1
  N  403  1  0.52585600  0.77410700  0.27010000  1
  N  405  1  0.54598100  0.75602200  0.25249700  1
  N  410  1  0.54314600  0.71585500  0.22024400  1
  N  411  1  0.46943300  0.79257900  0.29541600  1
  N  416  1  0.73934400  0.27446000  0.49225400  1
  N  418  1  0.71884600  0.25643500  0.50972600  1
  N  423  1  0.72080600  0.21608100  0.54177300  1
  N  424  1  0.79628900  0.29261300  0.46718100  1
  N  429  1  0.23970600  0.48849700  0.76873800  1
  N  431  1  0.21999400  0.50668700  0.75103400  1
  N  436  1  0.22371900  0.54696700  0.71894700  1
  N  437  1  0.29554900  0.46986500  0.79450400  1
  N  442  1  0.49155000  0.23917100  0.74265900  1
  N  444  1  0.47163600  0.25734100  0.76028400  1
  N  449  1  0.47496600  0.29753300  0.79251700  1
  N  450  1  0.54782800  0.22052100  0.71727700  1
  N  455  1  0.27344400  0.73860500  0.51965000  1
  N  457  1  0.29386200  0.75667400  0.50218200  1
  N  458  1  0.29165500  0.79693700  0.47002500  1
  N  459  1  0.21653600  0.72024900  0.54460900  1
  N  464  1  0.77437200  0.52378500  0.24227900  1
  N  466  1  0.79415000  0.50563900  0.25999400  1
  N  471  1  0.79058700  0.46543900  0.29218900  1
  N  472  1  0.71842200  0.54240300  0.21663400  1
  N  477  1  0.52327400  0.98891600  0.49284200  1
  N  479  1  0.54287700  0.00705100  0.51065800  1
  N  484  1  0.53890900  0.04711900  0.54302000  1
  N  485  1  0.46751200  0.97024700  0.46701000  1
  N  494  1  0.96972400  0.79287600  0.79532200  1
  N  499  1  0.23883900  0.27398800  0.99240100  1
  N  501  1  0.21919300  0.25580300  0.01014300  1
  N  506  1  0.22303800  0.21554200  0.04226600  1
  N  507  1  0.29457500  0.29261100  0.96652700  1
  N  509  1  0.99129400  0.23869400  0.24291600  1
  N  510  1  0.97134700  0.25686400  0.26052400  1
  N  511  1  0.97454500  0.29721800  0.29255600  1
  N  516  1  0.77389600  0.73899800  0.01935300  1
  N  518  1  0.79346700  0.75720300  0.00159400  1
  N  523  1  0.78942400  0.79733300  0.96933000  1
  N  524  1  0.71818900  0.72019200  0.04511600  1
  N  529  1  0.52298900  0.48852300  0.99264100  1
  N  531  1  0.54328200  0.50666900  0.01009900  1
  N  536  1  0.54081000  0.54701500  0.04215000  1
  N  537  1  0.46621600  0.47001600  0.96765000  1
  N  542  1  0.73979100  0.98841200  0.76908300  1
  N  544  1  0.71955900  0.00653100  0.75156500  1
  N  549  1  0.72218600  0.04680100  0.71941700  1
  N  550  1  0.79644400  0.96996500  0.79425200  1
  N  555  1  0.27402000  0.02403600  0.24216800  1
  N  557  1  0.29431700  0.00597000  0.25970300  1
  N  558  1  0.29188700  0.96575500  0.29192400  1
  N  559  1  0.21727600  0.04242900  0.21707100  1
  N  568  1  0.96650400  0.47025700  0.46732100  1
