# generated using pymatgen
data_CdH10(C11O4)2
_symmetry_space_group_name_H-M   'P 1'
_cell_length_a   15.59207000
_cell_length_b   15.63291000
_cell_length_c   32.89351000
_cell_angle_alpha   90.01722000
_cell_angle_beta   89.90008000
_cell_angle_gamma   89.93056000
_symmetry_Int_Tables_number   1
_chemical_formula_structural   CdH10(C11O4)2
_chemical_formula_sum   'Cd8 H80 C176 O64'
_cell_volume   8017.75576744
_cell_formula_units_Z   8
loop_
 _symmetry_equiv_pos_site_id
 _symmetry_equiv_pos_as_xyz
  1  'x, y, z'
loop_
 _atom_site_type_symbol
 _atom_site_label
 _atom_site_symmetry_multiplicity
 _atom_site_fract_x
 _atom_site_fract_y
 _atom_site_fract_z
 _atom_site_occupancy
  Cd  Cd0  1  0.72574000  0.72982000  0.91978000  1
  Cd  Cd1  1  0.27269000  0.27137000  0.41928000  1
  Cd  Cd2  1  0.22657000  0.77362000  0.16982000  1
  Cd  Cd3  1  0.77193000  0.22758000  0.66973000  1
  Cd  Cd4  1  0.77209000  0.22842000  0.33042000  1
  Cd  Cd5  1  0.22443000  0.77263000  0.83032000  1
  Cd  Cd6  1  0.26955000  0.27364000  0.07985000  1
  Cd  Cd7  1  0.72875000  0.72778000  0.57993000  1
  H  H8  1  0.93084000  0.40773000  0.78894000  1
  H  H9  1  0.66390000  0.42216000  0.75968000  1
  H  H10  1  0.64033000  0.52833000  0.81629000  1
  H  H11  1  0.09157000  0.43620000  0.97458000  1
  H  H12  1  0.34471000  0.51976000  0.00471000  1
  H  H13  1  0.34286000  0.62364000  0.94613000  1
  H  H14  1  0.85189000  0.50716000  0.91084000  1
  H  H15  1  0.97563000  0.52143000  0.95612000  1
  H  H16  1  0.14408000  0.54274000  0.85144000  1
  H  H17  1  0.02200000  0.52099000  0.80638000  1
  H  H18  1  0.06893000  0.59122000  0.28793000  1
  H  H19  1  0.33615000  0.57758000  0.25875000  1
  H  H20  1  0.35950000  0.47159000  0.31545000  1
  H  H21  1  0.90907000  0.56279000  0.47474000  1
  H  H22  1  0.65591000  0.47961000  0.50578000  1
  H  H23  1  0.65669000  0.37693000  0.44665000  1
  H  H24  1  0.14731000  0.49241000  0.40969000  1
  H  H25  1  0.02422000  0.47857000  0.45517000  1
  H  H26  1  0.85501000  0.45669000  0.35094000  1
  H  H27  1  0.97698000  0.47823000  0.30559000  1
  H  H28  1  0.90689000  0.56947000  0.03836000  1
  H  H29  1  0.92274000  0.83541000  0.00837000  1
  H  H30  1  0.02832000  0.85873000  0.06532000  1
  H  H31  1  0.93391000  0.40946000  0.22495000  1
  H  H32  1  0.02034000  0.15846000  0.25610000  1
  H  H33  1  0.12294000  0.15915000  0.19671000  1
  H  H34  1  0.00454000  0.64805000  0.16003000  1
  H  H35  1  0.01826000  0.52494000  0.20562000  1
  H  H36  1  0.04050000  0.35606000  0.10137000  1
  H  H37  1  0.02039000  0.47789000  0.05596000  1
  H  H38  1  0.08826000  0.43119000  0.53593000  1
  H  H39  1  0.07363000  0.16451000  0.50762000  1
  H  H40  1  0.97203000  0.14143000  0.56634000  1
  H  H41  1  0.06318000  0.59183000  0.72466000  1
  H  H42  1  0.97632000  0.84347000  0.75550000  1
  H  H43  1  0.87545000  0.84264000  0.69576000  1
  H  H44  1  0.99568000  0.35363000  0.65976000  1
  H  H45  1  0.98119000  0.47685000  0.70509000  1
  H  H46  1  0.95878000  0.64487000  0.60051000  1
  H  H47  1  0.97981000  0.52303000  0.55540000  1
  H  H48  1  0.57004000  0.90887000  0.46232000  1
  H  H49  1  0.83729000  0.92398000  0.49087000  1
  H  H50  1  0.85987000  0.02883000  0.43356000  1
  H  H51  1  0.40869000  0.93544000  0.27605000  1
  H  H52  1  0.15629000  0.02005000  0.24495000  1
  H  H53  1  0.15632000  0.12197000  0.30436000  1
  H  H54  1  0.64745000  0.00560000  0.33990000  1
  H  H55  1  0.52361000  0.01903000  0.29474000  1
  H  H56  1  0.35537000  0.04116000  0.39957000  1
  H  H57  1  0.47787000  0.02095000  0.44453000  1
  H  H58  1  0.42931000  0.08958000  0.96321000  1
  H  H59  1  0.16221000  0.07376000  0.99220000  1
  H  H60  1  0.13950000  0.97013000  0.93431000  1
  H  H61  1  0.59070000  0.06569000  0.77582000  1
  H  H62  1  0.84295000  0.97988000  0.74456000  1
  H  H63  1  0.84129000  0.87654000  0.80338000  1
  H  H64  1  0.35144000  0.99422000  0.84044000  1
  H  H65  1  0.47472000  0.98121000  0.79485000  1
  H  H66  1  0.64416000  0.95952000  0.89897000  1
  H  H67  1  0.52188000  0.97932000  0.94450000  1
  H  H68  1  0.58992000  0.06997000  0.21171000  1
  H  H69  1  0.57628000  0.33661000  0.24046000  1
  H  H70  1  0.47161000  0.36007000  0.18317000  1
  H  H71  1  0.56398000  0.90844000  0.02567000  1
  H  H72  1  0.47989000  0.65605000  0.99551000  1
  H  H73  1  0.37504000  0.65854000  0.05389000  1
  H  H74  1  0.49269000  0.14795000  0.08929000  1
  H  H75  1  0.47856000  0.02449000  0.04407000  1
  H  H76  1  0.45664000  0.85679000  0.14874000  1
  H  H77  1  0.47846000  0.97880000  0.19381000  1
  H  H78  1  0.41088000  0.93197000  0.71264000  1
  H  H79  1  0.42346000  0.66582000  0.74218000  1
  H  H80  1  0.52841000  0.64101000  0.68494000  1
  H  H81  1  0.43667000  0.08877000  0.52641000  1
  H  H82  1  0.51971000  0.34021000  0.49383000  1
  H  H83  1  0.62330000  0.34112000  0.55254000  1
  H  H84  1  0.50844000  0.85199000  0.59049000  1
  H  H85  1  0.52231000  0.97497000  0.54494000  1
  H  H86  1  0.54384000  0.14400000  0.64919000  1
  H  H87  1  0.52284000  0.02236000  0.69458000  1
  C  C88  1  0.75878000  0.59663000  0.86526000  1
  C  C89  1  0.81330000  0.34979000  0.73621000  1
  C  C90  1  0.77234000  0.52712000  0.83488000  1
  C  C91  1  0.85644000  0.49265000  0.82786000  1
  C  C92  1  0.86850000  0.43693000  0.79451000  1
  C  C93  1  0.79972000  0.41220000  0.77040000  1
  C  C94  1  0.71660000  0.44395000  0.77871000  1
  C  C95  1  0.70363000  0.50180000  0.81029000  1
  C  C96  1  0.21472000  0.65197000  0.89344000  1
  C  C97  1  0.22105000  0.40492000  0.02501000  1
  C  C98  1  0.21632000  0.58749000  0.92684000  1
  C  C99  1  0.14293000  0.53451000  0.93464000  1
  C  C100  1  0.14464000  0.47966000  0.96871000  1
  C  C101  1  0.21711000  0.47331000  0.99297000  1
  C  C102  1  0.28885000  0.52614000  0.98511000  1
  C  C103  1  0.28798000  0.58278000  0.95249000  1
  C  C104  1  0.92795000  0.50966000  0.85500000  1
  C  C105  1  0.91588000  0.51303000  0.89785000  1
  C  C106  1  0.98556000  0.52054000  0.92338000  1
  C  C107  1  0.06960000  0.53087000  0.90743000  1
  C  C108  1  0.08076000  0.53322000  0.86458000  1
  C  C109  1  0.01184000  0.51996000  0.83909000  1
  C  C110  1  0.24107000  0.40318000  0.36432000  1
  C  C111  1  0.18684000  0.65195000  0.23634000  1
  C  C112  1  0.22731000  0.47233000  0.33386000  1
  C  C113  1  0.14301000  0.50619000  0.32675000  1
  C  C114  1  0.13121000  0.56203000  0.29350000  1
  C  C115  1  0.20024000  0.58757000  0.26962000  1
  C  C116  1  0.28331000  0.55570000  0.27774000  1
  C  C117  1  0.29617000  0.49783000  0.30929000  1
  C  C118  1  0.78363000  0.34825000  0.39391000  1
  C  C119  1  0.78078000  0.59349000  0.52593000  1
  C  C120  1  0.78291000  0.41313000  0.42704000  1
  C  C121  1  0.85667000  0.46581000  0.43444000  1
  C  C122  1  0.85568000  0.51985000  0.46879000  1
  C  C123  1  0.78369000  0.52580000  0.49355000  1
  C  C124  1  0.71146000  0.47350000  0.48589000  1
  C  C125  1  0.71165000  0.41762000  0.45303000  1
  C  C126  1  0.07128000  0.48953000  0.35396000  1
  C  C127  1  0.08335000  0.48670000  0.39678000  1
  C  C128  1  0.01376000  0.47961000  0.42250000  1
  C  C129  1  0.92962000  0.46929000  0.40683000  1
  C  C130  1  0.91834000  0.46644000  0.36396000  1
  C  C131  1  0.98724000  0.47932000  0.33828000  1
  C  C132  1  0.09506000  0.74100000  0.11484000  1
  C  C133  1  0.84792000  0.68689000  0.98602000  1
  C  C134  1  0.02648000  0.72724000  0.08405000  1
  C  C135  1  0.99218000  0.64339000  0.07706000  1
  C  C136  1  0.93646000  0.63147000  0.04378000  1
  C  C137  1  0.91171000  0.70009000  0.01959000  1
  C  C138  1  0.94404000  0.78283000  0.02756000  1
  C  C139  1  0.00168000  0.79572000  0.05922000  1
  C  C140  1  0.14964000  0.28556000  0.14325000  1
  C  C141  1  0.90488000  0.28174000  0.27634000  1
  C  C142  1  0.08569000  0.28487000  0.17705000  1
  C  C143  1  0.03220000  0.35803000  0.18467000  1
  C  C144  1  0.97790000  0.35678000  0.21904000  1
  C  C145  1  0.97282000  0.28522000  0.24388000  1
  C  C146  1  0.02606000  0.21368000  0.23613000  1
  C  C147  1  0.08192000  0.21395000  0.20312000  1
  C  C148  1  0.00857000  0.57199000  0.10437000  1
  C  C149  1  0.01072000  0.58413000  0.14720000  1
  C  C150  1  0.01767000  0.51474000  0.17291000  1
  C  C151  1  0.02823000  0.43082000  0.15718000  1
  C  C152  1  0.03114000  0.41943000  0.11434000  1
  C  C153  1  0.01887000  0.48816000  0.08867000  1
  C  C154  1  0.90507000  0.25928000  0.61528000  1
  C  C155  1  0.14604000  0.31359000  0.48353000  1
  C  C156  1  0.97327000  0.27333000  0.58426000  1
  C  C157  1  0.00654000  0.35733000  0.57657000  1
  C  C158  1  0.05998000  0.36900000  0.54227000  1
  C  C159  1  0.08397000  0.30020000  0.51801000  1
  C  C160  1  0.05315000  0.21734000  0.52690000  1
  C  C161  1  0.99771000  0.20454000  0.55954000  1
  C  C162  1  0.85048000  0.71776000  0.64206000  1
  C  C163  1  0.09135000  0.72070000  0.77621000  1
  C  C164  1  0.91380000  0.71734000  0.67596000  1
  C  C165  1  0.96675000  0.64383000  0.68386000  1
  C  C166  1  0.01986000  0.64491000  0.71857000  1
  C  C167  1  0.02449000  0.71655000  0.74343000  1
  C  C168  1  0.97142000  0.78819000  0.73549000  1
  C  C169  1  0.91662000  0.78804000  0.70222000  1
  C  C170  1  0.99140000  0.42901000  0.60388000  1
  C  C171  1  0.98933000  0.41736000  0.64678000  1
  C  C172  1  0.98200000  0.48693000  0.67236000  1
  C  C173  1  0.97118000  0.57079000  0.65650000  1
  C  C174  1  0.96852000  0.58174000  0.61364000  1
  C  C175  1  0.98129000  0.51285000  0.58809000  1
  C  C176  1  0.74125000  0.09532000  0.38454000  1
  C  C177  1  0.68858000  0.84967000  0.51398000  1
  C  C178  1  0.72767000  0.02722000  0.41552000  1
  C  C179  1  0.64367000  0.99326000  0.42295000  1
  C  C180  1  0.63218000  0.93809000  0.45648000  1
  C  C181  1  0.70141000  0.91332000  0.48034000  1
  C  C182  1  0.78428000  0.94525000  0.47189000  1
  C  C183  1  0.79675000  0.00247000  0.44003000  1
  C  C184  1  0.28202000  0.14924000  0.35771000  1
  C  C185  1  0.28118000  0.90606000  0.22460000  1
  C  C186  1  0.28254000  0.08553000  0.32399000  1
  C  C187  1  0.35638000  0.03287000  0.31628000  1
  C  C188  1  0.35541000  0.97875000  0.28196000  1
  C  C189  1  0.28359000  0.97319000  0.25723000  1
  C  C190  1  0.21153000  0.02578000  0.26496000  1
  C  C191  1  0.21145000  0.08134000  0.29796000  1
  C  C192  1  0.57181000  0.00938000  0.39584000  1
  C  C193  1  0.58352000  0.01165000  0.35296000  1
  C  C194  1  0.51369000  0.01860000  0.32748000  1
  C  C195  1  0.42968000  0.02916000  0.34351000  1
  C  C196  1  0.41873000  0.03193000  0.38637000  1
  C  C197  1  0.48790000  0.01949000  0.41181000  1
  C  C198  1  0.25846000  0.90423000  0.88504000  1
  C  C199  1  0.31111000  0.14800000  0.01507000  1
  C  C200  1  0.27167000  0.97227000  0.91605000  1
  C  C201  1  0.35574000  0.00602000  0.92349000  1
  C  C202  1  0.36724000  0.06036000  0.95730000  1
  C  C203  1  0.29801000  0.08457000  0.98139000  1
  C  C204  1  0.21513000  0.05284000  0.97297000  1
  C  C205  1  0.20260000  0.99640000  0.94082000  1
  C  C206  1  0.71455000  0.85005000  0.85689000  1
  C  C207  1  0.71905000  0.09552000  0.72456000  1
  C  C208  1  0.71536000  0.91387000  0.82319000  1
  C  C209  1  0.64218000  0.96738000  0.81572000  1
  C  C210  1  0.64367000  0.02194000  0.78154000  1
  C  C211  1  0.71576000  0.02749000  0.75684000  1
  C  C212  1  0.78733000  0.97419000  0.76443000  1
  C  C213  1  0.78661000  0.91783000  0.79715000  1
  C  C214  1  0.42750000  0.99052000  0.89615000  1
  C  C215  1  0.41545000  0.98842000  0.85330000  1
  C  C216  1  0.48505000  0.98179000  0.82755000  1
  C  C217  1  0.56916000  0.97134000  0.84324000  1
  C  C218  1  0.58058000  0.96857000  0.88609000  1
  C  C219  1  0.51162000  0.98068000  0.91181000  1
  C  C220  1  0.40307000  0.24149000  0.13443000  1
  C  C221  1  0.65011000  0.18719000  0.26339000  1
  C  C222  1  0.47233000  0.22818000  0.16495000  1
  C  C223  1  0.50596000  0.14406000  0.17232000  1
  C  C224  1  0.56114000  0.13220000  0.20585000  1
  C  C225  1  0.58642000  0.20098000  0.22976000  1
  C  C226  1  0.55487000  0.28392000  0.22136000  1
  C  C227  1  0.49762000  0.29686000  0.18953000  1
  C  C228  1  0.34623000  0.78579000  0.10649000  1
  C  C229  1  0.59503000  0.77912000  0.97508000  1
  C  C230  1  0.41114000  0.78484000  0.07311000  1
  C  C231  1  0.46472000  0.85777000  0.06548000  1
  C  C232  1  0.52014000  0.85572000  0.03149000  1
  C  C233  1  0.52653000  0.78332000  0.00722000  1
  C  C234  1  0.47332000  0.71193000  0.01504000  1
  C  C235  1  0.41610000  0.71319000  0.04751000  1
  C  C236  1  0.48943000  0.07250000  0.14520000  1
  C  C237  1  0.48663000  0.08425000  0.10233000  1
  C  C238  1  0.47926000  0.01464000  0.07680000  1
  C  C239  1  0.46851000  0.93093000  0.09274000  1
  C  C240  1  0.46603000  0.91995000  0.13562000  1
  C  C241  1  0.47923000  0.98882000  0.16109000  1
  C  C242  1  0.59708000  0.75871000  0.63559000  1
  C  C243  1  0.34990000  0.81524000  0.76466000  1
  C  C244  1  0.52805000  0.77257000  0.66626000  1
  C  C245  1  0.49478000  0.85693000  0.67345000  1
  C  C246  1  0.43945000  0.86952000  0.70697000  1
  C  C247  1  0.41386000  0.80116000  0.73104000  1
  C  C248  1  0.44528000  0.71807000  0.72291000  1
  C  C249  1  0.50249000  0.70439000  0.69104000  1
  C  C250  1  0.65180000  0.21621000  0.60652000  1
  C  C251  1  0.40461000  0.21519000  0.47481000  1
  C  C252  1  0.58748000  0.21571000  0.57303000  1
  C  C253  1  0.53490000  0.14187000  0.56587000  1
  C  C254  1  0.47989000  0.14212000  0.53185000  1
  C  C255  1  0.47319000  0.21336000  0.50690000  1
  C  C256  1  0.52597000  0.28537000  0.51400000  1
  C  C257  1  0.58250000  0.28606000  0.54666000  1
  C  C258  1  0.51161000  0.92813000  0.64618000  1
  C  C259  1  0.51450000  0.91588000  0.60334000  1
  C  C260  1  0.52163000  0.98521000  0.57765000  1
  C  C261  1  0.53188000  0.06917000  0.59340000  1
  C  C262  1  0.53458000  0.08064000  0.63623000  1
  C  C263  1  0.52181000  0.01200000  0.66189000  1
  O  O264  1  0.70127000  0.58816000  0.89233000  1
  O  O265  1  0.80569000  0.66255000  0.86237000  1
  O  O266  1  0.74819000  0.33715000  0.71295000  1
  O  O267  1  0.88421000  0.31295000  0.73157000  1
  O  O268  1  0.26853000  0.64451000  0.86460000  1
  O  O269  1  0.15942000  0.71109000  0.89513000  1
  O  O270  1  0.29400000  0.39353000  0.04242000  1
  O  O271  1  0.15574000  0.36019000  0.03262000  1
  O  O272  1  0.29876000  0.41168000  0.39121000  1
  O  O273  1  0.19402000  0.33735000  0.36155000  1
  O  O274  1  0.25076000  0.66282000  0.21202000  1
  O  O275  1  0.11712000  0.69193000  0.23387000  1
  O  O276  1  0.72831000  0.35495000  0.36572000  1
  O  O277  1  0.83953000  0.28968000  0.39556000  1
  O  O278  1  0.70648000  0.61038000  0.54114000  1
  O  O279  1  0.84837000  0.63223000  0.53570000  1
  O  O280  1  0.08647000  0.80022000  0.14100000  1
  O  O281  1  0.16026000  0.69247000  0.11314000  1
  O  O282  1  0.83937000  0.74964000  0.96105000  1
  O  O283  1  0.80594000  0.61857000  0.98382000  1
  O  O284  1  0.14249000  0.22965000  0.11537000  1
  O  O285  1  0.20777000  0.34191000  0.14361000  1
  O  O286  1  0.89171000  0.20815000  0.29280000  1
  O  O287  1  0.86233000  0.34767000  0.28509000  1
  O  O288  1  0.91368000  0.19925000  0.64087000  1
  O  O289  1  0.83964000  0.30769000  0.61411000  1
  O  O290  1  0.16482000  0.24636000  0.46266000  1
  O  O291  1  0.17697000  0.38630000  0.47678000  1
  O  O292  1  0.85769000  0.77414000  0.61448000  1
  O  O293  1  0.79187000  0.66177000  0.64249000  1
  O  O294  1  0.10857000  0.79588000  0.78994000  1
  O  O295  1  0.12907000  0.65380000  0.78784000  1
  O  O296  1  0.80074000  0.08656000  0.35851000  1
  O  O297  1  0.69248000  0.16040000  0.38594000  1
  O  O298  1  0.75327000  0.83854000  0.53772000  1
  O  O299  1  0.61879000  0.81037000  0.51736000  1
  O  O300  1  0.22546000  0.14221000  0.38532000  1
  O  O301  1  0.33812000  0.20783000  0.35739000  1
  O  O302  1  0.20766000  0.89161000  0.20820000  1
  O  O303  1  0.34852000  0.86588000  0.21558000  1
  O  O304  1  0.19937000  0.91309000  0.85883000  1
  O  O305  1  0.30718000  0.83930000  0.88678000  1
  O  O306  1  0.24644000  0.16070000  0.03864000  1
  O  O307  1  0.38166000  0.18607000  0.01844000  1
  O  O308  1  0.77045000  0.85727000  0.88475000  1
  O  O309  1  0.65806000  0.79196000  0.85648000  1
  O  O310  1  0.79215000  0.10825000  0.70734000  1
  O  O311  1  0.65284000  0.13842000  0.71664000  1
  O  O312  1  0.41155000  0.29862000  0.10732000  1
  O  O313  1  0.33715000  0.19449000  0.13746000  1
  O  O314  1  0.66269000  0.25154000  0.28706000  1
  O  O315  1  0.68787000  0.11659000  0.26682000  1
  O  O316  1  0.35505000  0.73197000  0.13518000  1
  O  O317  1  0.28586000  0.83977000  0.10497000  1
  O  O318  1  0.60622000  0.70625000  0.95763000  1
  O  O319  1  0.63995000  0.84416000  0.96740000  1
  O  O320  1  0.58834000  0.70155000  0.60848000  1
  O  O321  1  0.66297000  0.80580000  0.63836000  1
  O  O322  1  0.33223000  0.74879000  0.78625000  1
  O  O323  1  0.31673000  0.88760000  0.76992000  1
  O  O324  1  0.64460000  0.27243000  0.63424000  1
  O  O325  1  0.71032000  0.16007000  0.60600000  1
  O  O326  1  0.38932000  0.28885000  0.45870000  1
  O  O327  1  0.36447000  0.14793000  0.46616000  1
