# generated using pymatgen
data_AgH15C24(NO2)3
_symmetry_space_group_name_H-M   'P 1'
_cell_length_a   10.34419000
_cell_length_b   16.24533150
_cell_length_c   20.28225000
_cell_angle_alpha   87.14107375
_cell_angle_beta   80.40515000
_cell_angle_gamma   71.68915157
_symmetry_Int_Tables_number   1
_chemical_formula_structural   AgH15C24(NO2)3
_chemical_formula_sum   'Ag4 H60 C96 N12 O24'
_cell_volume   3190.47327525
_cell_formula_units_Z   4
loop_
 _symmetry_equiv_pos_site_id
 _symmetry_equiv_pos_as_xyz
  1  'x, y, z'
loop_
 _atom_site_type_symbol
 _atom_site_label
 _atom_site_symmetry_multiplicity
 _atom_site_fract_x
 _atom_site_fract_y
 _atom_site_fract_z
 _atom_site_occupancy
  Ag  Ag0  1  0.62006000  0.60830000  0.96621000  1
  Ag  Ag1  1  0.22871000  0.39069000  0.46625000  1
  Ag  Ag2  1  0.37993000  0.39170000  0.03379000  1
  Ag  Ag3  1  0.77129000  0.60931000  0.53375000  1
  H  H4  1  0.55073000  0.18610000  0.24945000  1
  H  H5  1  0.76029000  0.10273000  0.74804000  1
  H  H6  1  0.09882000  0.80697000  0.01678000  1
  H  H7  1  0.09230000  0.45766000  0.81827000  1
  H  H8  1  0.39180000  0.64861000  0.51796000  1
  H  H9  1  0.52800000  0.81224000  0.98770000  1
  H  H10  1  0.85963000  0.89845000  0.24493000  1
  H  H11  1  0.34307000  0.18606000  0.48567000  1
  H  H12  1  0.48758000  0.04478000  0.43102000  1
  H  H13  1  0.53461000  0.82512000  0.37233000  1
  H  H14  1  0.87786000  0.36263000  0.67788000  1
  H  H15  1  0.24106000  0.55381000  0.53220000  1
  H  H16  1  0.33537000  0.74604000  0.95027000  1
  H  H17  1  0.36140000  0.17278000  0.87453000  1
  H  H18  1  0.46904000  0.58044000  0.10463000  1
  H  H19  1  0.84921000  0.54947000  0.84115000  1
  H  H20  1  0.07984000  0.25296000  0.45017000  1
  H  H21  1  0.53157000  0.95425000  0.93477000  1
  H  H22  1  0.39889000  0.45019000  0.34157000  1
  H  H23  1  0.87947000  0.62961000  0.26340000  1
  H  H24  1  0.90287000  0.19262000  0.51640000  1
  H  H25  1  0.55184000  0.54198000  0.31908000  1
  H  H26  1  0.71563000  0.67919000  0.81064000  1
  H  H27  1  0.24164000  0.63711000  0.17782000  1
  H  H28  1  0.73641000  0.81510000  0.75190000  1
  H  H29  1  0.39530000  0.32108000  0.30982000  1
  H  H30  1  0.79377000  0.44672000  0.03178000  1
  H  H31  1  0.03845000  0.35210000  0.01733000  1
  H  H32  1  0.04945000  0.41891000  0.60501000  1
  H  H33  1  0.50222000  0.36914000  0.76144000  1
  H  H34  1  0.44927000  0.81389000  0.75055000  1
  H  H35  1  0.90770000  0.54233000  0.18173000  1
  H  H36  1  0.46539000  0.17488000  0.62767000  1
  H  H37  1  0.09713000  0.80737000  0.48360000  1
  H  H38  1  0.90119000  0.19302000  0.98322000  1
  H  H39  1  0.75894000  0.44618000  0.46780000  1
  H  H40  1  0.15079000  0.45053000  0.15885000  1
  H  H41  1  0.51242000  0.95521000  0.56898000  1
  H  H42  1  0.47200000  0.18775000  0.01230000  1
  H  H43  1  0.66463000  0.25396000  0.04973000  1
  H  H44  1  0.20623000  0.55327000  0.96822000  1
  H  H45  1  0.60470000  0.67892000  0.69017000  1
  H  H46  1  0.60821000  0.35138000  0.48204000  1
  H  H47  1  0.49778000  0.63085000  0.23856000  1
  H  H48  1  0.65693000  0.81394000  0.51433000  1
  H  H49  1  0.26360000  0.18489000  0.24810000  1
  H  H50  1  0.46844000  0.04574000  0.06522000  1
  H  H51  1  0.28437000  0.32080000  0.18935000  1
  H  H52  1  0.95055000  0.58108000  0.39499000  1
  H  H53  1  0.44816000  0.45802000  0.68092000  1
  H  H54  1  0.53096000  0.41956000  0.89537000  1
  H  H55  1  0.75837000  0.36288000  0.82218000  1
  H  H56  1  0.12054000  0.37038000  0.73660000  1
  H  H57  1  0.12213000  0.63737000  0.32211000  1
  H  H58  1  0.23971000  0.89726000  0.25196000  1
  H  H59  1  0.14038000  0.10154000  0.75507000  1
  H  H60  1  0.63860000  0.82721000  0.12547000  1
  H  H61  1  0.92016000  0.74703000  0.54983000  1
  H  H62  1  0.60112000  0.54980000  0.65842000  1
  H  H63  1  0.96156000  0.64789000  0.98266000  1
  C  C64  1  0.57582000  0.65735000  0.41004000  1
  C  C65  1  0.91880000  0.33746000  0.62754000  1
  C  C66  1  0.82664000  0.69676000  0.27750000  1
  C  C67  1  0.48831000  0.60226000  0.41775000  1
  C  C68  1  0.40002000  0.49496000  0.37941000  1
  C  C69  1  0.39611000  0.60489000  0.47819000  1
  C  C70  1  0.15089000  0.72597000  0.10244000  1
  C  C71  1  0.23081000  0.34291000  0.90924000  1
  C  C72  1  0.50529000  0.18441000  0.30165000  1
  C  C73  1  0.99940000  0.39551000  0.97759000  1
  C  C74  1  0.56343000  0.13080000  0.81423000  1
  C  C75  1  0.63335000  0.80658000  0.33943000  1
  C  C76  1  0.70325000  0.71996000  0.32241000  1
  C  C77  1  0.93424000  0.24237000  0.53720000  1
  C  C78  1  0.69288000  0.86904000  0.31171000  1
  C  C79  1  0.42043000  0.27866000  0.82208000  1
  C  C80  1  0.43988000  0.19227000  0.84098000  1
  C  C81  1  0.01004000  0.75914000  0.13998000  1
  C  C82  1  0.68986000  0.81601000  0.80413000  1
  C  C83  1  0.31304000  0.55207000  0.48625000  1
  C  C84  1  0.25809000  0.66240000  0.12761000  1
  C  C85  1  0.63900000  0.23819000  0.74954000  1
  C  C86  1  0.86408000  0.44827000  0.98582000  1
  C  C87  1  0.52878000  0.10463000  0.33509000  1
  C  C88  1  0.08872000  0.39786000  0.91702000  1
  C  C89  1  0.41940000  0.25885000  0.33545000  1
  C  C90  1  0.03017000  0.45337000  0.86627000  1
  C  C91  1  0.38841000  0.18308000  0.43303000  1
  C  C92  1  0.47056000  0.10488000  0.40283000  1
  C  C93  1  0.89443000  0.50491000  0.87895000  1
  C  C94  1  0.48494000  0.54639000  0.36696000  1
  C  C95  1  0.60879000  0.02492000  0.29609000  1
  C  C96  1  0.67799000  0.74112000  0.83695000  1
  C  C97  1  0.57542000  0.89444000  0.90604000  1
  C  C98  1  0.38477000  0.63067000  0.08700000  1
  C  C99  1  0.57105000  0.81579000  0.93524000  1
  C  C100  1  0.63408000  0.89538000  0.83846000  1
  C  C101  1  0.87371000  0.27408000  0.60228000  1
  C  C102  1  0.51922000  0.30209000  0.77632000  1
  C  C103  1  0.30966000  0.72321000  0.00056000  1
  C  C104  1  0.66518000  0.15154000  0.76834000  1
  C  C105  1  0.17974000  0.75737000  0.03735000  1
  C  C106  1  0.63474000  0.97513000  0.79990000  1
  C  C107  1  0.87964000  0.76162000  0.24943000  1
  C  C108  1  0.76592000  0.24093000  0.64005000  1
  C  C109  1  0.81611000  0.84873000  0.26640000  1
  C  C110  1  0.01442000  0.36899000  0.58698000  1
  C  C111  1  0.03085000  0.27620000  0.50041000  1
  C  C112  1  0.52944000  0.89512000  0.59717000  1
  C  C113  1  0.29674000  0.28004000  0.67759000  1
  C  C114  1  0.36665000  0.19341000  0.66057000  1
  C  C115  1  0.84911000  0.27402000  0.89756000  1
  C  C116  1  0.43658000  0.86919000  0.18577000  1
  C  C117  1  0.49471000  0.81558000  0.69835000  1
  C  C118  1  0.68696000  0.44792000  0.51375000  1
  C  C119  1  0.39121000  0.97507000  0.70390000  1
  C  C120  1  0.69033000  0.27679000  0.99944000  1
  C  C121  1  0.51169000  0.39774000  0.58225000  1
  C  C122  1  0.82025000  0.24263000  0.96265000  1
  C  C123  1  0.47122000  0.89536000  0.66490000  1
  C  C124  1  0.00059000  0.60449000  0.02241000  1
  C  C125  1  0.12629000  0.72591000  0.39772000  1
  C  C126  1  0.59999000  0.50503000  0.62058000  1
  C  C127  1  0.60389000  0.39511000  0.52181000  1
  C  C128  1  0.58060000  0.74114000  0.66455000  1
  C  C129  1  0.31014000  0.18399000  0.19586000  1
  C  C130  1  0.61159000  0.81692000  0.56697000  1
  C  C131  1  0.36526000  0.02486000  0.20010000  1
  C  C132  1  0.32201000  0.25887000  0.16305000  1
  C  C133  1  0.42458000  0.10556000  0.09396000  1
  C  C134  1  0.36099000  0.76181000  0.25046000  1
  C  C135  1  0.10556000  0.49509000  0.12104000  1
  C  C136  1  0.30711000  0.13096000  0.68829000  1
  C  C137  1  0.98995000  0.24086000  0.86002000  1
  C  C138  1  0.56012000  0.80772000  0.15902000  1
  C  C139  1  0.96914000  0.72380000  0.49959000  1
  C  C140  1  0.18390000  0.15126000  0.73360000  1
  C  C141  1  0.96982000  0.54663000  0.13373000  1
  C  C142  1  0.98559000  0.63100000  0.41302000  1
  C  C143  1  0.08121000  0.66253000  0.37246000  1
  C  C144  1  0.36592000  0.10461000  0.16154000  1
  C  C145  1  0.42894000  0.18421000  0.06476000  1
  C  C146  1  0.48079000  0.69790000  0.22368000  1
  C  C147  1  0.13592000  0.55172000  0.01418000  1
  C  C148  1  0.23408000  0.75906000  0.35995000  1
  C  C149  1  0.17336000  0.30323000  0.72250000  1
  C  C150  1  0.76918000  0.65709000  0.09076000  1
  C  C151  1  0.57958000  0.72133000  0.17792000  1
  C  C152  1  0.33481000  0.84846000  0.23165000  1
  C  C153  1  0.74192000  0.33759000  0.87239000  1
  C  C154  1  0.51505000  0.45361000  0.63304000  1
  C  C155  1  0.06577000  0.75762000  0.46280000  1
  C  C156  1  0.12036000  0.23837000  0.75057000  1
  C  C157  1  0.42417000  0.34265000  0.58995000  1
  C  C158  1  0.91128000  0.60214000  0.08298000  1
  C  C159  1  0.61523000  0.36933000  0.91300000  1
  N  N160  1  0.41232000  0.65928000  0.02388000  1
  N  N161  1  0.31436000  0.49526000  0.43840000  1
  N  N162  1  0.07025000  0.34032000  0.52375000  1
  N  N163  1  0.35897000  0.25942000  0.39992000  1
  N  N164  1  0.80924000  0.50465000  0.93798000  1
  N  N165  1  0.61782000  0.73984000  0.90129000  1
  N  N166  1  0.92975000  0.65968000  0.47624000  1
  N  N167  1  0.58768000  0.34072000  0.97612000  1
  N  N168  1  0.19077000  0.49534000  0.06202000  1
  N  N169  1  0.64102000  0.74058000  0.60008000  1
  N  N170  1  0.38219000  0.26015000  0.09871000  1
  N  N171  1  0.68563000  0.50474000  0.56160000  1
  O  O172  1  0.62444000  0.95305000  0.33680000  1
  O  O173  1  0.58241000  0.04722000  0.84074000  1
  O  O174  1  0.29972000  0.34508000  0.84352000  1
  O  O175  1  0.70484000  0.19884000  0.61670000  1
  O  O176  1  0.00687000  0.73465000  0.20684000  1
  O  O177  1  0.64995000  0.65330000  0.34466000  1
  O  O178  1  0.67409000  0.97643000  0.73977000  1
  O  O179  1  0.65251000  0.02353000  0.23631000  1
  O  O180  1  0.28989000  0.30100000  0.95407000  1
  O  O181  1  0.73923000  0.26557000  0.70697000  1
  O  O182  1  0.59204000  0.70043000  0.45473000  1
  O  O183  1  0.90804000  0.80085000  0.11634000  1
  O  O184  1  0.99313000  0.26535000  0.79316000  1
  O  O185  1  0.09197000  0.19914000  0.88366000  1
  O  O186  1  0.70028000  0.65492000  0.15648000  1
  O  O187  1  0.32592000  0.02356000  0.26023000  1
  O  O188  1  0.41759000  0.95278000  0.15926000  1
  O  O189  1  0.37557000  0.04694000  0.66320000  1
  O  O190  1  0.34749000  0.97646000  0.76369000  1
  O  O191  1  0.29517000  0.80115000  0.38329000  1
  O  O192  1  0.40795000  0.29957000  0.54527000  1
  O  O193  1  0.71010000  0.69900000  0.04593000  1
  O  O194  1  0.35004000  0.34670000  0.65534000  1
  O  O195  1  0.26076000  0.73443000  0.29303000  1
