# generated using pymatgen
data_AlH7C12O5
_symmetry_space_group_name_H-M   'P 1'
_cell_length_a   6.59320000
_cell_length_b   21.45682000
_cell_length_c   21.45683000
_cell_angle_alpha   89.99955000
_cell_angle_beta   90.00000000
_cell_angle_gamma   90.00000000
_symmetry_Int_Tables_number   1
_chemical_formula_structural   AlH7C12O5
_chemical_formula_sum   'Al8 H56 C96 O40'
_cell_volume   3035.47854953
_cell_formula_units_Z   8
loop_
 _symmetry_equiv_pos_site_id
 _symmetry_equiv_pos_as_xyz
  1  'x, y, z'
loop_
 _atom_site_type_symbol
 _atom_site_label
 _atom_site_symmetry_multiplicity
 _atom_site_fract_x
 _atom_site_fract_y
 _atom_site_fract_z
 _atom_site_occupancy
  Al  Al1  1  0.00000000  0.24936000  0.75064000  1.0
  Al  Al2  1  0.00000000  0.75064000  0.24936000  1.0
  Al  Al3  1  0.00000000  0.75064000  0.75064000  1.0
  Al  Al4  1  0.00000000  0.24936000  0.24936000  1.0
  Al  Al5  1  0.50000000  0.25268000  0.74732000  1.0
  Al  Al6  1  0.50000000  0.74732000  0.25268000  1.0
  Al  Al7  1  0.50000000  0.74733000  0.74733000  1.0
  Al  Al8  1  0.50000000  0.25267000  0.25267000  1.0
  H  H1  1  0.52731000  0.05803000  0.20572000  1.0
  H  H2  1  0.95585000  0.11545000  0.33221000  1.0
  H  H3  1  0.70929000  0.05831000  0.39568000  1.0
  H  H4  1  0.52731000  0.94197000  0.79428000  1.0
  H  H5  1  0.95585000  0.88454000  0.66779000  1.0
  H  H6  1  0.70929000  0.94169000  0.60433000  1.0
  H  H7  1  0.51351000  0.30335000  0.55825000  1.0
  H  H8  1  0.88460000  0.20200000  0.61517000  1.0
  H  H9  1  0.61566000  0.14831000  0.55831000  1.0
  H  H10  1  0.51351000  0.69665000  0.44175000  1.0
  H  H11  1  0.88460000  0.79800000  0.38483000  1.0
  H  H12  1  0.61566000  0.85169000  0.44169000  1.0
  H  H13  1  0.48649000  0.44175000  0.69665000  1.0
  H  H14  1  0.11540000  0.38483000  0.79800000  1.0
  H  H15  1  0.38434000  0.44169000  0.85169000  1.0
  H  H16  1  0.48648000  0.55825000  0.30335000  1.0
  H  H17  1  0.11540000  0.61517000  0.20200000  1.0
  H  H18  1  0.38434000  0.55831000  0.14831000  1.0
  H  H19  1  0.47269000  0.20572000  0.05803000  1.0
  H  H20  1  0.04415000  0.33221000  0.11546000  1.0
  H  H21  1  0.29071000  0.39568000  0.05831000  1.0
  H  H22  1  0.47269000  0.79428000  0.94198000  1.0
  H  H23  1  0.04415000  0.66779000  0.88455000  1.0
  H  H24  1  0.29071000  0.60432000  0.94169000  1.0
  H  H25  1  0.48648000  0.44174000  0.30335000  1.0
  H  H26  1  0.11541000  0.38483000  0.20200000  1.0
  H  H27  1  0.38434000  0.44169000  0.14831000  1.0
  H  H28  1  0.48648000  0.55825000  0.69666000  1.0
  H  H29  1  0.11541000  0.61517000  0.79800000  1.0
  H  H30  1  0.38434000  0.55831000  0.85169000  1.0
  H  H31  1  0.47269000  0.20572000  0.94198000  1.0
  H  H32  1  0.04415000  0.33221000  0.88455000  1.0
  H  H33  1  0.29070000  0.39567000  0.94169000  1.0
  H  H34  1  0.47269000  0.79428000  0.05803000  1.0
  H  H35  1  0.04415000  0.66779000  0.11546000  1.0
  H  H36  1  0.29071000  0.60432000  0.05831000  1.0
  H  H37  1  0.52731000  0.05802000  0.79428000  1.0
  H  H38  1  0.95585000  0.11545000  0.66779000  1.0
  H  H39  1  0.70929000  0.05831000  0.60432000  1.0
  H  H40  1  0.52731000  0.94197000  0.20572000  1.0
  H  H41  1  0.95585000  0.88454000  0.33221000  1.0
  H  H42  1  0.70929000  0.94169000  0.39568000  1.0
  H  H43  1  0.51352000  0.30334000  0.44175000  1.0
  H  H44  1  0.88460000  0.20200000  0.38483000  1.0
  H  H45  1  0.61566000  0.14831000  0.44169000  1.0
  H  H46  1  0.51352000  0.69665000  0.55826000  1.0
  H  H47  1  0.88460000  0.79800000  0.61518000  1.0
  H  H48  1  0.61566000  0.85169000  0.55831000  1.0
  H  H49  1  0.26159000  0.27366000  0.17527000  1.0
  H  H50  1  0.26158000  0.72633000  0.82473000  1.0
  H  H51  1  0.26160000  0.27365000  0.82472000  1.0
  H  H52  1  0.26160000  0.72635000  0.17528000  1.0
  H  H53  1  0.73840000  0.17528000  0.72635000  1.0
  H  H54  1  0.73840000  0.82472000  0.27366000  1.0
  H  H55  1  0.73841000  0.17527000  0.27366000  1.0
  H  H56  1  0.73841000  0.82473000  0.72634000  1.0
  C  C1  1  0.25218000  0.13559000  0.25135000  1.0
  C  C2  1  0.25192000  0.06605000  0.25791000  1.0
  C  C3  1  0.09660000  0.03369000  0.29201000  1.0
  C  C4  1  0.40664000  0.03276000  0.22925000  1.0
  C  C5  1  0.95170000  0.06506000  0.32986000  1.0
  C  C6  1  0.81414000  0.03277000  0.36607000  1.0
  C  C7  1  0.25218000  0.86440000  0.74865000  1.0
  C  C8  1  0.25192000  0.93395000  0.74210000  1.0
  C  C9  1  0.09660000  0.96630000  0.70799000  1.0
  C  C10  1  0.40664000  0.96724000  0.77075000  1.0
  C  C11  1  0.95170000  0.93493000  0.67015000  1.0
  C  C12  1  0.81414000  0.96722000  0.63394000  1.0
  C  C13  1  0.24622000  0.25606000  0.63577000  1.0
  C  C14  1  0.23073000  0.25534000  0.56606000  1.0
  C  C15  1  0.06094000  0.22767000  0.53377000  1.0
  C  C16  1  0.38712000  0.28314000  0.53271000  1.0
  C  C17  1  0.89398000  0.19900000  0.56496000  1.0
  C  C18  1  0.74131000  0.16895000  0.53270000  1.0
  C  C19  1  0.24621000  0.74394000  0.36423000  1.0
  C  C20  1  0.23073000  0.74465000  0.43394000  1.0
  C  C21  1  0.06094000  0.77232000  0.46624000  1.0
  C  C22  1  0.38712000  0.71685000  0.46729000  1.0
  C  C23  1  0.89398000  0.80100000  0.43505000  1.0
  C  C24  1  0.74131000  0.83105000  0.46731000  1.0
  C  C25  1  0.75378000  0.36423000  0.74394000  1.0
  C  C26  1  0.76927000  0.43394000  0.74466000  1.0
  C  C27  1  0.93906000  0.46623000  0.77233000  1.0
  C  C28  1  0.61288000  0.46729000  0.71686000  1.0
  C  C29  1  0.10602000  0.43504000  0.80100000  1.0
  C  C30  1  0.25869000  0.46730000  0.83105000  1.0
  C  C31  1  0.75379000  0.63577000  0.25606000  1.0
  C  C32  1  0.76927000  0.56606000  0.25535000  1.0
  C  C33  1  0.93906000  0.53377000  0.22768000  1.0
  C  C34  1  0.61288000  0.53271000  0.28315000  1.0
  C  C35  1  0.10602000  0.56495000  0.19900000  1.0
  C  C36  1  0.25869000  0.53270000  0.16895000  1.0
  C  C37  1  0.74782000  0.25135000  0.13559000  1.0
  C  C38  1  0.74808000  0.25790000  0.06605000  1.0
  C  C39  1  0.90340000  0.29201000  0.03369000  1.0
  C  C40  1  0.59336000  0.22925000  0.03276000  1.0
  C  C41  1  0.04830000  0.32986000  0.06507000  1.0
  C  C42  1  0.18586000  0.36607000  0.03277000  1.0
  C  C43  1  0.74782000  0.74864000  0.86441000  1.0
  C  C44  1  0.74808000  0.74209000  0.93395000  1.0
  C  C45  1  0.90340000  0.70799000  0.96631000  1.0
  C  C46  1  0.59336000  0.77074000  0.96724000  1.0
  C  C47  1  0.04830000  0.67014000  0.93494000  1.0
  C  C48  1  0.18586000  0.63393000  0.96723000  1.0
  C  C49  1  0.75374000  0.36423000  0.25606000  1.0
  C  C50  1  0.76928000  0.43393000  0.25534000  1.0
  C  C51  1  0.93906000  0.46623000  0.22768000  1.0
  C  C52  1  0.61288000  0.46728000  0.28315000  1.0
  C  C53  1  0.10601000  0.43504000  0.19900000  1.0
  C  C54  1  0.25870000  0.46730000  0.16895000  1.0
  C  C55  1  0.75373000  0.63577000  0.74394000  1.0
  C  C56  1  0.76928000  0.56607000  0.74466000  1.0
  C  C57  1  0.93906000  0.53377000  0.77233000  1.0
  C  C58  1  0.61288000  0.53271000  0.71686000  1.0
  C  C59  1  0.10601000  0.56496000  0.80100000  1.0
  C  C60  1  0.25870000  0.53270000  0.83105000  1.0
  C  C61  1  0.74785000  0.25135000  0.86441000  1.0
  C  C62  1  0.74807000  0.25790000  0.93395000  1.0
  C  C63  1  0.90340000  0.29201000  0.96631000  1.0
  C  C64  1  0.59336000  0.22925000  0.96724000  1.0
  C  C65  1  0.04831000  0.32985000  0.93494000  1.0
  C  C66  1  0.18586000  0.36606000  0.96723000  1.0
  C  C67  1  0.74785000  0.74865000  0.13560000  1.0
  C  C68  1  0.74807000  0.74209000  0.06605000  1.0
  C  C69  1  0.90340000  0.70799000  0.03370000  1.0
  C  C70  1  0.59336000  0.77075000  0.03276000  1.0
  C  C71  1  0.04831000  0.67014000  0.06507000  1.0
  C  C72  1  0.18586000  0.63393000  0.03277000  1.0
  C  C73  1  0.25215000  0.13559000  0.74865000  1.0
  C  C74  1  0.25193000  0.06605000  0.74210000  1.0
  C  C75  1  0.09660000  0.03369000  0.70799000  1.0
  C  C76  1  0.40664000  0.03276000  0.77075000  1.0
  C  C77  1  0.95169000  0.06506000  0.67014000  1.0
  C  C78  1  0.81414000  0.03277000  0.63394000  1.0
  C  C79  1  0.25215000  0.86440000  0.25135000  1.0
  C  C80  1  0.25193000  0.93395000  0.25791000  1.0
  C  C81  1  0.09660000  0.96630000  0.29201000  1.0
  C  C82  1  0.40664000  0.96724000  0.22926000  1.0
  C  C83  1  0.95169000  0.93493000  0.32986000  1.0
  C  C84  1  0.81414000  0.96722000  0.36607000  1.0
  C  C85  1  0.24626000  0.25606000  0.36423000  1.0
  C  C86  1  0.23072000  0.25534000  0.43393000  1.0
  C  C87  1  0.06094000  0.22767000  0.46623000  1.0
  C  C88  1  0.38712000  0.28314000  0.46729000  1.0
  C  C89  1  0.89399000  0.19900000  0.43504000  1.0
  C  C90  1  0.74130000  0.16895000  0.46730000  1.0
  C  C91  1  0.24627000  0.74394000  0.63577000  1.0
  C  C92  1  0.23072000  0.74465000  0.56607000  1.0
  C  C93  1  0.06094000  0.77232000  0.53377000  1.0
  C  C94  1  0.38712000  0.71685000  0.53272000  1.0
  C  C95  1  0.89399000  0.80100000  0.56496000  1.0
  C  C96  1  0.74130000  0.83105000  0.53270000  1.0
  O  O1  1  0.07986000  0.16251000  0.24710000  1.0
  O  O2  1  0.42418000  0.16283000  0.25035000  1.0
  O  O3  1  0.07986000  0.83749000  0.75291000  1.0
  O  O4  1  0.42418000  0.83716000  0.74965000  1.0
  O  O5  1  0.08084000  0.25600000  0.66624000  1.0
  O  O6  1  0.42260000  0.25633000  0.66055000  1.0
  O  O7  1  0.08084000  0.74400000  0.33376000  1.0
  O  O8  1  0.42260000  0.74367000  0.33945000  1.0
  O  O9  1  0.91916000  0.33376000  0.74400000  1.0
  O  O10  1  0.57740000  0.33945000  0.74367000  1.0
  O  O11  1  0.91916000  0.66624000  0.25600000  1.0
  O  O12  1  0.57740000  0.66055000  0.25633000  1.0
  O  O13  1  0.92014000  0.24709000  0.16251000  1.0
  O  O14  1  0.57582000  0.25035000  0.16283000  1.0
  O  O15  1  0.92014000  0.75290000  0.83749000  1.0
  O  O16  1  0.57582000  0.74965000  0.83717000  1.0
  O  O17  1  0.91918000  0.33375000  0.25600000  1.0
  O  O18  1  0.57741000  0.33944000  0.25633000  1.0
  O  O19  1  0.91919000  0.66624000  0.74400000  1.0
  O  O20  1  0.57742000  0.66055000  0.74368000  1.0
  O  O21  1  0.92012000  0.24709000  0.83749000  1.0
  O  O22  1  0.57580000  0.25034000  0.83716000  1.0
  O  O23  1  0.92012000  0.75291000  0.16251000  1.0
  O  O24  1  0.57579000  0.74965000  0.16284000  1.0
  O  O25  1  0.07988000  0.16250000  0.75291000  1.0
  O  O26  1  0.42420000  0.16284000  0.74965000  1.0
  O  O27  1  0.07988000  0.83749000  0.24710000  1.0
  O  O28  1  0.42420000  0.83716000  0.25035000  1.0
  O  O29  1  0.08082000  0.25600000  0.33376000  1.0
  O  O30  1  0.42259000  0.25633000  0.33945000  1.0
  O  O31  1  0.08081000  0.74400000  0.66625000  1.0
  O  O32  1  0.42258000  0.74367000  0.66056000  1.0
  O  O33  1  0.25114000  0.27498000  0.22053000  1.0
  O  O34  1  0.25114000  0.72502000  0.77947000  1.0
  O  O35  1  0.25115000  0.27498000  0.77946000  1.0
  O  O36  1  0.25115000  0.72502000  0.22054000  1.0
  O  O37  1  0.74885000  0.22054000  0.72502000  1.0
  O  O38  1  0.74885000  0.77946000  0.27498000  1.0
  O  O39  1  0.74886000  0.22053000  0.27498000  1.0
  O  O40  1  0.74886000  0.77947000  0.72503000  1.0
