# generated using pymatgen
data_Mn3H33C39N8O9
_symmetry_space_group_name_H-M   'P 1'
_cell_length_a   17.86366000
_cell_length_b   29.84202982
_cell_length_c   29.86264000
_cell_angle_alpha   84.92006217
_cell_angle_beta   72.62793000
_cell_angle_gamma   72.57076839
_symmetry_Int_Tables_number   1
_chemical_formula_structural   Mn3H33C39N8O9
_chemical_formula_sum   'Mn24 H264 C312 N64 O72'
_cell_volume   14495.69760779
_cell_formula_units_Z   8
loop_
 _symmetry_equiv_pos_site_id
 _symmetry_equiv_pos_as_xyz
  1  'x, y, z'
loop_
 _atom_site_type_symbol
 _atom_site_label
 _atom_site_symmetry_multiplicity
 _atom_site_fract_x
 _atom_site_fract_y
 _atom_site_fract_z
 _atom_site_occupancy
  Mn  Mn0  1  0.92460000  0.64246000  0.08603000  1
  Mn  Mn1  1  0.76475000  0.53428000  0.11564000  1
  Mn  Mn2  1  0.79021000  0.42515000  0.99620000  1
  Mn  Mn3  1  0.15245000  0.85754000  0.41396000  1
  Mn  Mn4  1  0.91425000  0.96590000  0.38370000  1
  Mn  Mn5  1  0.71135000  0.07488000  0.50372000  1
  Mn  Mn6  1  0.56625000  0.58611000  0.35776000  1
  Mn  Mn7  1  0.29778000  0.61663000  0.46581000  1
  Mn  Mn8  1  0.21521000  0.49650000  0.57479000  1
  Mn  Mn9  1  0.00969000  0.91397000  0.14245000  1
  Mn  Mn10  1  0.88051000  0.88394000  0.03391000  1
  Mn  Mn11  1  0.78708000  0.00372000  0.92480000  1
  Mn  Mn12  1  0.07540000  0.35754000  0.91397000  1
  Mn  Mn13  1  0.23525000  0.46572000  0.88436000  1
  Mn  Mn14  1  0.20979000  0.57485000  0.00381000  1
  Mn  Mn15  1  0.84755000  0.14246000  0.58604000  1
  Mn  Mn16  1  0.08574000  0.03410000  0.61630000  1
  Mn  Mn17  1  0.28864000  0.92512000  0.49628000  1
  Mn  Mn18  1  0.43374000  0.41389000  0.64224000  1
  Mn  Mn19  1  0.70222000  0.38337000  0.53419000  1
  Mn  Mn20  1  0.78478000  0.50350000  0.42521000  1
  Mn  Mn21  1  0.99031000  0.08603000  0.85755000  1
  Mn  Mn22  1  0.11948000  0.11606000  0.96609000  1
  Mn  Mn23  1  0.21292000  0.99628000  0.07521000  1
  H  H24  1  0.73906000  0.59081000  0.24822000  1
  H  H25  1  0.73577000  0.63580000  0.31426000  1
  H  H26  1  0.82120000  0.69181000  0.29966000  1
  H  H27  1  0.90632000  0.70214000  0.21838000  1
  H  H28  1  0.94912000  0.53780000  0.97902000  1
  H  H29  1  0.84942000  0.53209000  0.00773000  1
  H  H30  1  0.86205000  0.58188000  0.97165000  1
  H  H31  1  0.59496000  0.42824000  0.65804000  1
  H  H32  1  0.64840000  0.44117000  0.72193000  1
  H  H33  1  0.42759000  0.42132000  0.82052000  1
  H  H34  1  0.38268000  0.41044000  0.75253000  1
  H  H35  1  0.57559000  0.47671000  0.81586000  1
  H  H36  1  0.52557000  0.43766000  0.85117000  1
  H  H37  1  0.56324000  0.53202000  0.01350000  1
  H  H38  1  0.44776000  0.60604000  0.02533000  1
  H  H39  1  0.44160000  0.66807000  0.07842000  1
  H  H40  1  0.54913000  0.65491000  0.11977000  1
  H  H41  1  0.91458000  0.38218000  0.11502000  1
  H  H42  1  0.91746000  0.37647000  0.05525000  1
  H  H43  1  0.98114000  0.40584000  0.06905000  1
  H  H44  1  0.01575000  0.75320000  0.01149000  1
  H  H45  1  0.09349000  0.80582000  0.96467000  1
  H  H46  1  0.24333000  0.77207000  0.92333000  1
  H  H47  1  0.31008000  0.68629000  0.92822000  1
  H  H48  1  0.99700000  0.54266000  0.13658000  1
  H  H49  1  0.08890000  0.49458000  0.12235000  1
  H  H50  1  0.01458000  0.50238000  0.09169000  1
  H  H51  1  0.78011000  0.34544000  0.93633000  1
  H  H52  1  0.73517000  0.33549000  0.86750000  1
  H  H53  1  0.63834000  0.48653000  0.86395000  1
  H  H54  1  0.68755000  0.48997000  0.93307000  1
  H  H55  1  0.65135000  0.36949000  0.81624000  1
  H  H56  1  0.70162000  0.41011000  0.78538000  1
  H  H57  1  0.07783000  0.90955000  0.25138000  1
  H  H58  1  0.18571000  0.86449000  0.18543000  1
  H  H59  1  0.31216000  0.80820000  0.20026000  1
  H  H60  1  0.32576000  0.79752000  0.28168000  1
  H  H61  1  0.96621000  0.96235000  0.52072000  1
  H  H62  1  0.88909000  0.96838000  0.49221000  1
  H  H63  1  0.91542000  0.91845000  0.52815000  1
  H  H64  1  0.18152000  0.07161000  0.84212000  1
  H  H65  1  0.31178000  0.05877000  0.77824000  1
  H  H66  1  0.16963000  0.07878000  0.67957000  1
  H  H67  1  0.04584000  0.08953000  0.74756000  1
  H  H68  1  0.36821000  0.02329000  0.68430000  1
  H  H69  1  0.31435000  0.06230000  0.64898000  1
  H  H70  1  0.60904000  0.96778000  0.48644000  1
  H  H71  1  0.57933000  0.89382000  0.47454000  1
  H  H72  1  0.68838000  0.83176000  0.42158000  1
  H  H73  1  0.82383000  0.84500000  0.38009000  1
  H  H74  1  0.91131000  0.11814000  0.38491000  1
  H  H75  1  0.84893000  0.12330000  0.44470000  1
  H  H76  1  0.95575000  0.09400000  0.43075000  1
  H  H77  1  0.28087000  0.74698000  0.48813000  1
  H  H78  1  0.36370000  0.69423000  0.53527000  1
  H  H79  1  0.43833000  0.72777000  0.57689000  1
  H  H80  1  0.42493000  0.81344000  0.57189000  1
  H  H81  1  0.17685000  0.95761000  0.36330000  1
  H  H82  1  0.20637000  0.00565000  0.37776000  1
  H  H83  1  0.10916000  0.99793000  0.40821000  1
  H  H84  1  0.56186000  0.15443000  0.56360000  1
  H  H85  1  0.43812000  0.16448000  0.63238000  1
  H  H86  1  0.48854000  0.01348000  0.63602000  1
  H  H87  1  0.61036000  0.00992000  0.56695000  1
  H  H88  1  0.33719000  0.13054000  0.68374000  1
  H  H89  1  0.39733000  0.08997000  0.71460000  1
  H  H90  1  0.32925000  0.74929000  0.40887000  1
  H  H91  1  0.37189000  0.81493000  0.36394000  1
  H  H92  1  0.51346000  0.79959000  0.30800000  1
  H  H93  1  0.60808000  0.71797000  0.29775000  1
  H  H94  1  0.48627000  0.47956000  0.46261000  1
  H  H95  1  0.38086000  0.50846000  0.46852000  1
  H  H96  1  0.44266000  0.47216000  0.41875000  1
  H  H97  1  0.02364000  0.15808000  0.57127000  1
  H  H98  1  0.08998000  0.22196000  0.55883000  1
  H  H99  1  0.84924000  0.32080000  0.57873000  1
  H  H100  1  0.79347000  0.25282000  0.58901000  1
  H  H101  1  0.05251000  0.31598000  0.52337000  1
  H  H102  1  0.96332000  0.35139000  0.56234000  1
  H  H103  1  0.09569000  0.51383000  0.46790000  1
  H  H104  1  0.05382000  0.52545000  0.39406000  1
  H  H105  1  0.10972000  0.57831000  0.33192000  1
  H  H106  1  0.20432000  0.61965000  0.34485000  1
  H  H107  1  0.29662000  0.61640000  0.61782000  1
  H  H108  1  0.29463000  0.55644000  0.62319000  1
  H  H109  1  0.38682000  0.57075000  0.59318000  1
  H  H110  1  0.76931000  0.51182000  0.24684000  1
  H  H111  1  0.89959000  0.46463000  0.19423000  1
  H  H112  1  0.01554000  0.42302000  0.22796000  1
  H  H113  1  0.99656000  0.42795000  0.31366000  1
  H  H114  1  0.53983000  0.63652000  0.45711000  1
  H  H115  1  0.58339000  0.62265000  0.50528000  1
  H  H116  1  0.51678000  0.59195000  0.49763000  1
  H  H117  1  0.12679000  0.43665000  0.65414000  1
  H  H118  1  0.07121000  0.36810000  0.66432000  1
  H  H119  1  0.12470000  0.36423000  0.51343000  1
  H  H120  1  0.17826000  0.43302000  0.50981000  1
  H  H121  1  0.02105000  0.31682000  0.63047000  1
  H  H122  1  0.11195000  0.28575000  0.58997000  1
  H  H123  1  0.98716000  0.75131000  0.09029000  1
  H  H124  1  0.04994000  0.68533000  0.13524000  1
  H  H125  1  0.12018000  0.70013000  0.19152000  1
  H  H126  1  0.12346000  0.78162000  0.20205000  1
  H  H127  1  0.92971000  0.02087000  0.03746000  1
  H  H128  1  0.85933000  0.99219000  0.03066000  1
  H  H129  1  0.83445000  0.02816000  0.08079000  1
  H  H130  1  0.25215000  0.34151000  0.92832000  1
  H  H131  1  0.36974000  0.27776000  0.94113000  1
  H  H132  1  0.24822000  0.17870000  0.92121000  1
  H  H133  1  0.13481000  0.24661000  0.91058000  1
  H  H134  1  0.39106000  0.18374000  0.97665000  1
  H  H135  1  0.37688000  0.14830000  0.93742000  1
  H  H136  1  0.57706000  0.98566000  0.03125000  1
  H  H137  1  0.47319000  0.97408000  0.10515000  1
  H  H138  1  0.52012000  0.92229000  0.16781000  1
  H  H139  1  0.66912000  0.88186000  0.15542000  1
  H  H140  1  0.02915000  0.88348000  0.88178000  1
  H  H141  1  0.97212000  0.94338000  0.87648000  1
  H  H142  1  0.05051000  0.92942000  0.90517000  1
  H  H143  1  0.02733000  0.98824000  0.25345000  1
  H  H144  1  0.05812000  0.03528000  0.30601000  1
  H  H145  1  0.16626000  0.07682000  0.27232000  1
  H  H146  1  0.23795000  0.07176000  0.18659000  1
  H  H147  1  0.13428000  0.86293000  0.04245000  1
  H  H148  1  0.21201000  0.87762000  0.99481000  1
  H  H149  1  0.10697000  0.90782000  0.00218000  1
  H  H150  1  0.71670000  0.06362000  0.84546000  1
  H  H151  1  0.60260000  0.13227000  0.83557000  1
  H  H152  1  0.50233000  0.13590000  0.98647000  1
  H  H153  1  0.62098000  0.06694000  0.98986000  1
  H  H154  1  0.46764000  0.18356000  0.86956000  1
  H  H155  1  0.48659000  0.21446000  0.91040000  1
  H  H156  1  0.26094000  0.40919000  0.75178000  1
  H  H157  1  0.26423000  0.36419000  0.68574000  1
  H  H158  1  0.17880000  0.30819000  0.70035000  1
  H  H159  1  0.09367000  0.29786000  0.78162000  1
  H  H160  1  0.05089000  0.46219000  0.02098000  1
  H  H161  1  0.15058000  0.46791000  0.99228000  1
  H  H162  1  0.13795000  0.41812000  0.02835000  1
  H  H163  1  0.40504000  0.57176000  0.34196000  1
  H  H164  1  0.35160000  0.55883000  0.27807000  1
  H  H165  1  0.57241000  0.57868000  0.17949000  1
  H  H166  1  0.61731000  0.58956000  0.24748000  1
  H  H167  1  0.42441000  0.52329000  0.18415000  1
  H  H168  1  0.47443000  0.56234000  0.14883000  1
  H  H169  1  0.43675000  0.46798000  0.98650000  1
  H  H170  1  0.55223000  0.39396000  0.97467000  1
  H  H171  1  0.55840000  0.33193000  0.92158000  1
  H  H172  1  0.45086000  0.34509000  0.88023000  1
  H  H173  1  0.08542000  0.61782000  0.88499000  1
  H  H174  1  0.08255000  0.62352000  0.94476000  1
  H  H175  1  0.01886000  0.59416000  0.93095000  1
  H  H176  1  0.98425000  0.24679000  0.98851000  1
  H  H177  1  0.90650000  0.19418000  0.03533000  1
  H  H178  1  0.75667000  0.22793000  0.07668000  1
  H  H179  1  0.68991000  0.31371000  0.07178000  1
  H  H180  1  0.00299000  0.45734000  0.86343000  1
  H  H181  1  0.91110000  0.50542000  0.87766000  1
  H  H182  1  0.98542000  0.49762000  0.90832000  1
  H  H183  1  0.21988000  0.65456000  0.06367000  1
  H  H184  1  0.26483000  0.66451000  0.13250000  1
  H  H185  1  0.36166000  0.51347000  0.13606000  1
  H  H186  1  0.31244000  0.51003000  0.06694000  1
  H  H187  1  0.34865000  0.63050000  0.18376000  1
  H  H188  1  0.29838000  0.58989000  0.21463000  1
  H  H189  1  0.92216000  0.09045000  0.74863000  1
  H  H190  1  0.81428000  0.13551000  0.81457000  1
  H  H191  1  0.68783000  0.19180000  0.79975000  1
  H  H192  1  0.67423000  0.20248000  0.71832000  1
  H  H193  1  0.03378000  0.03765000  0.47928000  1
  H  H194  1  0.11091000  0.03162000  0.50780000  1
  H  H195  1  0.08457000  0.08155000  0.47185000  1
  H  H196  1  0.81848000  0.92839000  0.15788000  1
  H  H197  1  0.68821000  0.94123000  0.22176000  1
  H  H198  1  0.83036000  0.92122000  0.32044000  1
  H  H199  1  0.95416000  0.91047000  0.25245000  1
  H  H200  1  0.63179000  0.97671000  0.31571000  1
  H  H201  1  0.68564000  0.93770000  0.35103000  1
  H  H202  1  0.39096000  0.03222000  0.51357000  1
  H  H203  1  0.42066000  0.10618000  0.52546000  1
  H  H204  1  0.31162000  0.16824000  0.57842000  1
  H  H205  1  0.17617000  0.15500000  0.61992000  1
  H  H206  1  0.08868000  0.88186000  0.61510000  1
  H  H207  1  0.15107000  0.87670000  0.55530000  1
  H  H208  1  0.04425000  0.90600000  0.56926000  1
  H  H209  1  0.71912000  0.25302000  0.51187000  1
  H  H210  1  0.63629000  0.30577000  0.46474000  1
  H  H211  1  0.56167000  0.27223000  0.42312000  1
  H  H212  1  0.57507000  0.18656000  0.42811000  1
  H  H213  1  0.82314000  0.04239000  0.63671000  1
  H  H214  1  0.79362000  0.99435000  0.62224000  1
  H  H215  1  0.89084000  0.00207000  0.59180000  1
  H  H216  1  0.43814000  0.84557000  0.43640000  1
  H  H217  1  0.56188000  0.83552000  0.36762000  1
  H  H218  1  0.51145000  0.98652000  0.36398000  1
  H  H219  1  0.38964000  0.99008000  0.43305000  1
  H  H220  1  0.66280000  0.86946000  0.31626000  1
  H  H221  1  0.60267000  0.91002000  0.28540000  1
  H  H222  1  0.67074000  0.25071000  0.59114000  1
  H  H223  1  0.62810000  0.18507000  0.63606000  1
  H  H224  1  0.48654000  0.20041000  0.69200000  1
  H  H225  1  0.39191000  0.28203000  0.70225000  1
  H  H226  1  0.51374000  0.52043000  0.53740000  1
  H  H227  1  0.61914000  0.49154000  0.53148000  1
  H  H228  1  0.55733000  0.52784000  0.58125000  1
  H  H229  1  0.97636000  0.84192000  0.42874000  1
  H  H230  1  0.91002000  0.77804000  0.44117000  1
  H  H231  1  0.15077000  0.67919000  0.42127000  1
  H  H232  1  0.20653000  0.74718000  0.41099000  1
  H  H233  1  0.94749000  0.68401000  0.47663000  1
  H  H234  1  0.03667000  0.64861000  0.43767000  1
  H  H235  1  0.90430000  0.48617000  0.53211000  1
  H  H236  1  0.94617000  0.47455000  0.60594000  1
  H  H237  1  0.89028000  0.42169000  0.66808000  1
  H  H238  1  0.79568000  0.38035000  0.65516000  1
  H  H239  1  0.70338000  0.38360000  0.38218000  1
  H  H240  1  0.70537000  0.44356000  0.37681000  1
  H  H241  1  0.61317000  0.42925000  0.40683000  1
  H  H242  1  0.23068000  0.48818000  0.75316000  1
  H  H243  1  0.10040000  0.53537000  0.80577000  1
  H  H244  1  0.98445000  0.57698000  0.77205000  1
  H  H245  1  0.00343000  0.57205000  0.68635000  1
  H  H246  1  0.46017000  0.36348000  0.54289000  1
  H  H247  1  0.41661000  0.37735000  0.49472000  1
  H  H248  1  0.48322000  0.40805000  0.50237000  1
  H  H249  1  0.87322000  0.56334000  0.34586000  1
  H  H250  1  0.92879000  0.63190000  0.33568000  1
  H  H251  1  0.87529000  0.63577000  0.48657000  1
  H  H252  1  0.82174000  0.56698000  0.49020000  1
  H  H253  1  0.97894000  0.68318000  0.36954000  1
  H  H254  1  0.88804000  0.71425000  0.41004000  1
  H  H255  1  0.01284000  0.24868000  0.90971000  1
  H  H256  1  0.95006000  0.31467000  0.86476000  1
  H  H257  1  0.87981000  0.29987000  0.80849000  1
  H  H258  1  0.87653000  0.21838000  0.79796000  1
  H  H259  1  0.07029000  0.97913000  0.96255000  1
  H  H260  1  0.14066000  0.00781000  0.96934000  1
  H  H261  1  0.16555000  0.97183000  0.91922000  1
  H  H262  1  0.74785000  0.65849000  0.07169000  1
  H  H263  1  0.63026000  0.72224000  0.05887000  1
  H  H264  1  0.75178000  0.82130000  0.07879000  1
  H  H265  1  0.86518000  0.75339000  0.08942000  1
  H  H266  1  0.60894000  0.81626000  0.02335000  1
  H  H267  1  0.62312000  0.85170000  0.06258000  1
  H  H268  1  0.42293000  0.01434000  0.96876000  1
  H  H269  1  0.52681000  0.02592000  0.89486000  1
  H  H270  1  0.47988000  0.07771000  0.83219000  1
  H  H271  1  0.33088000  0.11814000  0.84459000  1
  H  H272  1  0.97086000  0.11651000  0.11822000  1
  H  H273  1  0.02788000  0.05661000  0.12352000  1
  H  H274  1  0.94948000  0.07058000  0.09483000  1
  H  H275  1  0.97267000  0.01176000  0.74655000  1
  H  H276  1  0.94187000  0.96472000  0.69399000  1
  H  H277  1  0.83373000  0.92318000  0.72769000  1
  H  H278  1  0.76205000  0.92824000  0.81342000  1
  H  H279  1  0.86572000  0.13707000  0.95755000  1
  H  H280  1  0.78798000  0.12238000  0.00519000  1
  H  H281  1  0.89303000  0.09217000  0.99782000  1
  H  H282  1  0.28330000  0.93638000  0.15454000  1
  H  H283  1  0.39740000  0.86773000  0.16443000  1
  H  H284  1  0.49766000  0.86410000  0.01353000  1
  H  H285  1  0.37903000  0.93305000  0.01014000  1
  H  H286  1  0.53235000  0.81644000  0.13044000  1
  H  H287  1  0.51340000  0.78554000  0.08960000  1
  C  C288  1  0.87074000  0.65282000  0.18722000  1
  C  C289  1  0.82261000  0.62071000  0.19569000  1
  C  C290  1  0.77538000  0.61528000  0.24196000  1
  C  C291  1  0.77435000  0.64022000  0.27931000  1
  C  C292  1  0.82190000  0.67167000  0.27079000  1
  C  C293  1  0.86940000  0.67778000  0.22573000  1
  C  C294  1  0.81948000  0.59350000  0.15827000  1
  C  C295  1  0.88552000  0.58327000  0.03740000  1
  C  C296  1  0.88553000  0.55704000  0.99706000  1
  C  C297  1  0.55930000  0.42746000  0.69458000  1
  C  C298  1  0.58910000  0.43436000  0.73067000  1
  C  C299  1  0.54215000  0.43276000  0.77745000  1
  C  C300  1  0.46700000  0.42350000  0.78525000  1
  C  C301  1  0.44126000  0.41725000  0.74722000  1
  C  C302  1  0.57113000  0.44058000  0.81780000  1
  C  C303  1  0.61627000  0.58653000  0.09022000  1
  C  C304  1  0.62021000  0.55149000  0.05954000  1
  C  C305  1  0.55888000  0.55956000  0.03652000  1
  C  C306  1  0.49487000  0.60086000  0.04300000  1
  C  C307  1  0.49158000  0.63558000  0.07291000  1
  C  C308  1  0.55121000  0.62864000  0.09604000  1
  C  C309  1  0.68584000  0.50701000  0.05038000  1
  C  C310  1  0.85470000  0.44510000  0.08558000  1
  C  C311  1  0.92069000  0.39958000  0.08065000  1
  C  C312  1  0.20178000  0.67101000  0.97252000  1
  C  C313  1  0.11750000  0.69055000  0.99719000  1
  C  C314  1  0.08019000  0.73906000  0.99297000  1
  C  C315  1  0.12408000  0.76854000  0.96676000  1
  C  C316  1  0.20763000  0.74943000  0.94363000  1
  C  C317  1  0.24565000  0.70163000  0.94619000  1
  C  C318  1  0.06907000  0.66262000  0.02864000  1
  C  C319  1  0.08789000  0.55034000  0.07260000  1
  C  C320  1  0.04433000  0.52098000  0.10807000  1
  C  C321  1  0.74824000  0.37583000  0.91929000  1
  C  C322  1  0.72310000  0.37058000  0.88070000  1
  C  C323  1  0.68242000  0.41035000  0.85944000  1
  C  C324  1  0.66963000  0.45419000  0.87856000  1
  C  C325  1  0.69648000  0.45656000  0.91724000  1
  C  C326  1  0.65456000  0.40552000  0.81762000  1
  C  C327  1  0.20981000  0.84699000  0.31269000  1
  C  C328  1  0.13837000  0.87933000  0.30408000  1
  C  C329  1  0.13216000  0.88490000  0.25776000  1
  C  C330  1  0.19349000  0.85992000  0.22045000  1
  C  C331  1  0.26376000  0.82833000  0.22910000  1
  C  C332  1  0.27201000  0.82202000  0.27424000  1
  C  C333  1  0.07077000  0.90666000  0.34144000  1
  C  C334  1  0.00586000  0.91700000  0.46235000  1
  C  C335  1  0.93952000  0.94327000  0.50275000  1
  C  C336  1  0.18162000  0.07248000  0.80556000  1
  C  C337  1  0.25439000  0.06562000  0.76948000  1
  C  C338  1  0.25255000  0.06730000  0.72270000  1
  C  C339  1  0.17592000  0.07656000  0.71485000  1
  C  C340  1  0.10595000  0.08277000  0.75285000  1
  C  C341  1  0.32959000  0.05944000  0.68232000  1
  C  C342  1  0.79315000  0.91334000  0.40968000  1
  C  C343  1  0.73138000  0.94838000  0.44036000  1
  C  C344  1  0.65515000  0.94029000  0.46337000  1
  C  C345  1  0.63887000  0.89901000  0.45687000  1
  C  C346  1  0.70023000  0.86431000  0.42697000  1
  C  C347  1  0.77596000  0.87128000  0.40383000  1
  C  C348  1  0.74333000  0.99288000  0.44951000  1
  C  C349  1  0.88510000  0.05498000  0.41370000  1
  C  C350  1  0.90063000  0.10040000  0.41909000  1
  C  C351  1  0.34575000  0.82895000  0.52744000  1
  C  C352  1  0.30566000  0.80955000  0.50264000  1
  C  C353  1  0.31253000  0.76105000  0.50681000  1
  C  C354  1  0.35934000  0.73148000  0.53317000  1
  C  C355  1  0.40056000  0.75048000  0.55645000  1
  C  C356  1  0.39371000  0.79823000  0.55385000  1
  C  C357  1  0.26062000  0.83752000  0.47121000  1
  C  C358  1  0.21104000  0.94980000  0.42740000  1
  C  C359  1  0.17387000  0.97928000  0.39187000  1
  C  C360  1  0.54331000  0.12406000  0.58066000  1
  C  C361  1  0.47434000  0.12937000  0.61922000  1
  C  C362  1  0.45217000  0.08964000  0.64052000  1
  C  C363  1  0.50222000  0.04578000  0.62140000  1
  C  C364  1  0.57012000  0.04335000  0.58275000  1
  C  C365  1  0.37780000  0.09451000  0.68239000  1
  C  C366  1  0.52275000  0.68739000  0.34721000  1
  C  C367  1  0.44241000  0.69619000  0.37919000  1
  C  C368  1  0.39014000  0.74264000  0.38449000  1
  C  C369  1  0.41458000  0.77983000  0.35957000  1
  C  C370  1  0.49362000  0.77090000  0.32820000  1
  C  C371  1  0.54684000  0.72566000  0.32214000  1
  C  C372  1  0.41177000  0.65896000  0.40655000  1
  C  C373  1  0.46791000  0.53793000  0.41714000  1
  C  C374  1  0.44178000  0.49761000  0.44345000  1
  C  C375  1  0.98715000  0.19468000  0.57221000  1
  C  C376  1  0.02386000  0.23076000  0.56554000  1
  C  C377  1  0.97527000  0.27761000  0.56726000  1
  C  C378  1  0.89082000  0.28548000  0.57641000  1
  C  C379  1  0.85885000  0.24746000  0.58240000  1
  C  C380  1  0.01193000  0.31802000  0.55947000  1
  C  C381  1  0.20331000  0.59016000  0.41317000  1
  C  C382  1  0.17204000  0.55970000  0.44831000  1
  C  C383  1  0.11867000  0.53675000  0.44030000  1
  C  C384  1  0.09584000  0.54312000  0.39909000  1
  C  C385  1  0.12733000  0.57290000  0.36433000  1
  C  C386  1  0.18022000  0.59595000  0.37115000  1
  C  C387  1  0.19296000  0.55069000  0.49283000  1
  C  C388  1  0.29823000  0.58713000  0.55496000  1
  C  C389  1  0.31994000  0.58215000  0.60009000  1
  C  C390  1  0.87304000  0.47238000  0.32901000  1
  C  C391  1  0.80826000  0.49716000  0.30953000  1
  C  C392  1  0.81955000  0.49311000  0.26099000  1
  C  C393  1  0.89284000  0.46675000  0.23149000  1
  C  C394  1  0.95726000  0.44348000  0.25058000  1
  C  C395  1  0.94754000  0.44610000  0.29833000  1
  C  C396  1  0.73154000  0.52839000  0.33749000  1
  C  C397  1  0.63815000  0.57241000  0.44980000  1
  C  C398  1  0.56528000  0.60817000  0.47899000  1
  C  C399  1  0.12491000  0.41962000  0.62385000  1
  C  C400  1  0.09419000  0.38115000  0.62921000  1
  C  C401  1  0.09299000  0.35984000  0.58955000  1
  C  C402  1  0.12396000  0.37884000  0.54570000  1
  C  C403  1  0.15358000  0.41738000  0.54322000  1
  C  C404  1  0.06027000  0.31803000  0.59446000  1
  C  C405  1  0.05689000  0.81261000  0.15270000  1
  C  C406  1  0.01759000  0.80403000  0.12046000  1
  C  C407  1  0.01689000  0.75769000  0.11490000  1
  C  C408  1  0.05323000  0.72035000  0.13983000  1
  C  C409  1  0.09194000  0.72899000  0.17140000  1
  C  C410  1  0.09403000  0.77415000  0.17767000  1
  C  C411  1  0.97737000  0.84141000  0.09313000  1
  C  C412  1  0.92329000  0.96238000  0.08264000  1
  C  C413  1  0.88390000  0.00280000  0.05612000  1
  C  C414  1  0.25322000  0.30490000  0.92748000  1
  C  C415  1  0.31927000  0.26889000  0.93434000  1
  C  C416  1  0.31934000  0.22202000  0.93268000  1
  C  C417  1  0.25205000  0.21407000  0.92347000  1
  C  C418  1  0.18808000  0.25204000  0.91730000  1
  C  C419  1  0.38880000  0.18176000  0.94049000  1
  C  C420  1  0.70673000  0.91074000  0.08674000  1
  C  C421  1  0.68002000  0.94090000  0.05145000  1
  C  C422  1  0.59559000  0.96325000  0.05911000  1
  C  C423  1  0.53798000  0.95680000  0.10030000  1
  C  C424  1  0.56467000  0.92762000  0.13536000  1
  C  C425  1  0.64752000  0.90505000  0.12883000  1
  C  C426  1  0.73659000  0.95002000  0.00707000  1
  C  C427  1  0.94040000  0.91316000  0.94480000  1
  C  C428  1  0.00130000  0.91788000  0.89926000  1
  C  C429  1  0.17401000  0.02742000  0.17135000  1
  C  C430  1  0.11439000  0.00275000  0.19077000  1
  C  C431  1  0.07308000  0.00687000  0.23929000  1
  C  C432  1  0.09073000  0.03316000  0.26877000  1
  C  C433  1  0.15097000  0.05640000  0.24970000  1
  C  C434  1  0.19156000  0.05376000  0.20197000  1
  C  C435  1  0.09704000  0.97142000  0.16284000  1
  C  C436  1  0.15999000  0.92728000  0.05062000  1
  C  C437  1  0.15284000  0.89161000  0.02100000  1
  C  C438  1  0.66776000  0.08065000  0.87584000  1
  C  C439  1  0.60383000  0.11914000  0.87063000  1
  C  C440  1  0.54187000  0.14039000  0.91037000  1
  C  C441  1  0.54830000  0.12132000  0.95415000  1
  C  C442  1  0.61404000  0.08273000  0.95649000  1
  C  C443  1  0.47203000  0.18215000  0.90561000  1
  C  C444  1  0.12926000  0.34718000  0.81278000  1
  C  C445  1  0.17739000  0.37929000  0.80432000  1
  C  C446  1  0.22462000  0.38472000  0.75805000  1
  C  C447  1  0.22564000  0.35978000  0.72069000  1
  C  C448  1  0.17810000  0.32833000  0.72922000  1
  C  C449  1  0.13059000  0.32222000  0.77428000  1
  C  C450  1  0.18051000  0.40650000  0.84173000  1
  C  C451  1  0.11448000  0.41672000  0.96260000  1
  C  C452  1  0.11446000  0.44296000  0.00294000  1
  C  C453  1  0.44070000  0.57254000  0.30542000  1
  C  C454  1  0.41089000  0.56564000  0.26933000  1
  C  C455  1  0.45785000  0.56724000  0.22255000  1
  C  C456  1  0.53300000  0.57650000  0.21476000  1
  C  C457  1  0.55874000  0.58275000  0.25278000  1
  C  C458  1  0.42888000  0.55941000  0.18220000  1
  C  C459  1  0.38374000  0.41346000  0.90978000  1
  C  C460  1  0.37978000  0.44851000  0.94047000  1
  C  C461  1  0.44111000  0.44044000  0.96349000  1
  C  C462  1  0.50513000  0.39913000  0.95701000  1
  C  C463  1  0.50842000  0.36442000  0.92709000  1
  C  C464  1  0.44879000  0.37136000  0.90396000  1
  C  C465  1  0.31416000  0.49299000  0.94962000  1
  C  C466  1  0.14530000  0.55490000  0.91443000  1
  C  C467  1  0.07930000  0.60042000  0.91935000  1
  C  C468  1  0.79822000  0.32899000  0.02749000  1
  C  C469  1  0.88249000  0.30945000  0.00281000  1
  C  C470  1  0.91981000  0.26094000  0.00703000  1
  C  C471  1  0.87592000  0.23146000  0.03325000  1
  C  C472  1  0.79237000  0.25057000  0.05637000  1
  C  C473  1  0.75435000  0.29837000  0.05381000  1
  C  C474  1  0.93092000  0.33738000  0.97136000  1
  C  C475  1  0.91212000  0.44965000  0.92740000  1
  C  C476  1  0.95566000  0.47902000  0.89193000  1
  C  C477  1  0.25176000  0.62417000  0.08072000  1
  C  C478  1  0.27690000  0.62942000  0.11930000  1
  C  C479  1  0.31757000  0.58965000  0.14057000  1
  C  C480  1  0.33037000  0.54581000  0.12144000  1
  C  C481  1  0.30351000  0.54344000  0.08277000  1
  C  C482  1  0.34544000  0.59447000  0.18239000  1
  C  C483  1  0.79018000  0.15301000  0.68731000  1
  C  C484  1  0.86162000  0.12067000  0.69592000  1
  C  C485  1  0.86784000  0.11510000  0.74225000  1
  C  C486  1  0.80650000  0.14008000  0.77955000  1
  C  C487  1  0.73623000  0.17167000  0.77091000  1
  C  C488  1  0.72798000  0.17798000  0.72576000  1
  C  C489  1  0.92922000  0.09334000  0.65856000  1
  C  C490  1  0.99413000  0.08300000  0.53766000  1
  C  C491  1  0.06047000  0.05673000  0.49726000  1
  C  C492  1  0.81837000  0.92752000  0.19444000  1
  C  C493  1  0.74561000  0.93438000  0.23052000  1
  C  C494  1  0.74745000  0.93270000  0.27731000  1
  C  C495  1  0.82407000  0.92344000  0.28515000  1
  C  C496  1  0.89404000  0.91723000  0.24715000  1
  C  C497  1  0.67041000  0.94056000  0.31768000  1
  C  C498  1  0.20685000  0.08666000  0.59033000  1
  C  C499  1  0.26861000  0.05162000  0.55964000  1
  C  C500  1  0.34484000  0.05971000  0.53664000  1
  C  C501  1  0.36113000  0.10099000  0.54313000  1
  C  C502  1  0.29978000  0.13568000  0.57304000  1
  C  C503  1  0.22403000  0.12872000  0.59618000  1
  C  C504  1  0.25667000  0.00712000  0.55050000  1
  C  C505  1  0.11490000  0.94501000  0.58630000  1
  C  C506  1  0.09936000  0.89960000  0.58092000  1
  C  C507  1  0.65424000  0.17105000  0.47256000  1
  C  C508  1  0.69434000  0.19045000  0.49736000  1
  C  C509  1  0.68747000  0.23895000  0.49320000  1
  C  C510  1  0.64066000  0.26852000  0.46684000  1
  C  C511  1  0.59944000  0.24952000  0.44355000  1
  C  C512  1  0.60629000  0.20176000  0.44615000  1
  C  C513  1  0.73938000  0.16247000  0.52879000  1
  C  C514  1  0.78896000  0.05019000  0.57260000  1
  C  C515  1  0.82613000  0.02072000  0.60813000  1
  C  C516  1  0.45668000  0.87594000  0.41935000  1
  C  C517  1  0.52567000  0.87062000  0.38079000  1
  C  C518  1  0.54782000  0.91036000  0.35948000  1
  C  C519  1  0.49778000  0.95422000  0.37860000  1
  C  C520  1  0.42987000  0.95665000  0.41725000  1
  C  C521  1  0.62220000  0.90549000  0.31762000  1
  C  C522  1  0.47724000  0.31261000  0.65280000  1
  C  C523  1  0.55758000  0.30381000  0.62081000  1
  C  C524  1  0.60986000  0.25736000  0.61551000  1
  C  C525  1  0.58541000  0.22017000  0.64043000  1
  C  C526  1  0.50637000  0.22910000  0.67181000  1
  C  C527  1  0.45315000  0.27434000  0.67786000  1
  C  C528  1  0.58823000  0.34104000  0.59346000  1
  C  C529  1  0.53208000  0.46207000  0.58287000  1
  C  C530  1  0.55821000  0.50239000  0.55655000  1
  C  C531  1  0.01285000  0.80532000  0.42779000  1
  C  C532  1  0.97613000  0.76924000  0.43446000  1
  C  C533  1  0.02473000  0.72239000  0.43274000  1
  C  C534  1  0.10917000  0.71452000  0.42359000  1
  C  C535  1  0.14114000  0.75254000  0.41760000  1
  C  C536  1  0.98807000  0.68198000  0.44054000  1
  C  C537  1  0.79669000  0.40984000  0.58684000  1
  C  C538  1  0.82796000  0.44030000  0.55169000  1
  C  C539  1  0.88133000  0.46325000  0.55970000  1
  C  C540  1  0.90415000  0.45688000  0.60092000  1
  C  C541  1  0.87266000  0.42710000  0.63567000  1
  C  C542  1  0.81978000  0.40405000  0.62886000  1
  C  C543  1  0.80704000  0.44931000  0.50718000  1
  C  C544  1  0.70177000  0.41287000  0.44504000  1
  C  C545  1  0.68007000  0.41784000  0.39991000  1
  C  C546  1  0.12696000  0.52762000  0.67099000  1
  C  C547  1  0.19174000  0.50284000  0.69048000  1
  C  C548  1  0.18044000  0.50689000  0.73902000  1
  C  C549  1  0.10715000  0.53325000  0.76852000  1
  C  C550  1  0.04274000  0.55652000  0.74943000  1
  C  C551  1  0.05245000  0.55390000  0.70168000  1
  C  C552  1  0.26846000  0.47161000  0.66252000  1
  C  C553  1  0.36185000  0.42759000  0.55021000  1
  C  C554  1  0.43471000  0.39183000  0.52101000  1
  C  C555  1  0.87509000  0.58038000  0.37615000  1
  C  C556  1  0.90580000  0.61885000  0.37079000  1
  C  C557  1  0.90701000  0.64016000  0.41046000  1
  C  C558  1  0.87604000  0.62116000  0.45430000  1
  C  C559  1  0.84641000  0.58262000  0.45678000  1
  C  C560  1  0.93972000  0.68197000  0.40554000  1
  C  C561  1  0.94310000  0.18739000  0.84731000  1
  C  C562  1  0.98241000  0.19597000  0.87955000  1
  C  C563  1  0.98311000  0.24231000  0.88510000  1
  C  C564  1  0.94676000  0.27965000  0.86017000  1
  C  C565  1  0.90806000  0.27101000  0.82860000  1
  C  C566  1  0.90596000  0.22585000  0.82233000  1
  C  C567  1  0.02263000  0.15859000  0.90687000  1
  C  C568  1  0.07671000  0.03761000  0.91736000  1
  C  C569  1  0.11609000  0.99720000  0.94389000  1
  C  C570  1  0.74678000  0.69509000  0.07253000  1
  C  C571  1  0.68072000  0.73111000  0.06567000  1
  C  C572  1  0.68066000  0.77798000  0.06732000  1
  C  C573  1  0.74795000  0.78593000  0.07653000  1
  C  C574  1  0.81192000  0.74796000  0.08270000  1
  C  C575  1  0.61119000  0.81824000  0.05952000  1
  C  C576  1  0.29326000  0.08926000  0.91327000  1
  C  C577  1  0.31998000  0.05910000  0.94856000  1
  C  C578  1  0.40442000  0.03674000  0.94090000  1
  C  C579  1  0.46202000  0.04320000  0.89971000  1
  C  C580  1  0.43532000  0.07238000  0.86464000  1
  C  C581  1  0.35247000  0.09495000  0.87118000  1
  C  C582  1  0.26340000  0.04998000  0.99293000  1
  C  C583  1  0.05959000  0.08684000  0.05521000  1
  C  C584  1  0.99869000  0.08212000  0.10075000  1
  C  C585  1  0.82599000  0.97258000  0.82866000  1
  C  C586  1  0.88560000  0.99725000  0.80923000  1
  C  C587  1  0.92691000  0.99313000  0.76071000  1
  C  C588  1  0.90927000  0.96684000  0.73124000  1
  C  C589  1  0.84903000  0.94360000  0.75031000  1
  C  C590  1  0.80843000  0.94624000  0.79803000  1
  C  C591  1  0.90296000  0.02858000  0.83717000  1
  C  C592  1  0.84001000  0.07272000  0.94938000  1
  C  C593  1  0.84716000  0.10839000  0.97900000  1
  C  C594  1  0.33223000  0.91935000  0.12416000  1
  C  C595  1  0.39617000  0.88085000  0.12937000  1
  C  C596  1  0.45813000  0.85961000  0.08963000  1
  C  C597  1  0.45169000  0.87868000  0.04585000  1
  C  C598  1  0.38595000  0.91727000  0.04352000  1
  C  C599  1  0.52797000  0.81785000  0.09439000  1
  N  N600  1  0.85883000  0.60018000  0.11351000  1
  N  N601  1  0.84953000  0.57269000  0.08083000  1
  N  N602  1  0.48608000  0.41942000  0.70244000  1
  N  N603  1  0.74560000  0.49791000  0.07168000  1
  N  N604  1  0.80350000  0.45397000  0.06002000  1
  N  N605  1  0.10377000  0.61697000  0.03554000  1
  N  N606  1  0.05332000  0.59573000  0.07031000  1
  N  N607  1  0.73483000  0.41813000  0.93764000  1
  N  N608  1  0.07210000  0.90003000  0.38622000  1
  N  N609  1  0.00279000  0.92768000  0.41889000  1
  N  N610  1  0.10824000  0.08056000  0.79762000  1
  N  N611  1  0.81501000  0.00211000  0.42787000  1
  N  N612  1  0.81751000  0.04599000  0.43957000  1
  N  N613  1  0.25615000  0.88322000  0.46446000  1
  N  N614  1  0.21920000  0.90447000  0.42965000  1
  N  N615  1  0.59053000  0.08175000  0.56235000  1
  N  N616  1  0.45807000  0.61412000  0.40021000  1
  N  N617  1  0.42154000  0.58147000  0.42789000  1
  N  N618  1  0.90588000  0.20261000  0.58014000  1
  N  N619  1  0.24301000  0.57235000  0.50207000  1
  N  N620  1  0.25714000  0.56084000  0.54598000  1
  N  N621  1  0.72022000  0.53495000  0.38325000  1
  N  N622  1  0.64849000  0.56977000  0.40454000  1
  N  N623  1  0.15377000  0.43783000  0.58156000  1
  N  N624  1  0.97226000  0.88621000  0.09971000  1
  N  N625  1  0.93133000  0.91888000  0.07178000  1
  N  N626  1  0.18793000  0.29693000  0.91946000  1
  N  N627  1  0.81748000  0.92803000  0.99774000  1
  N  N628  1  0.86398000  0.93940000  0.95380000  1
  N  N629  1  0.13827000  0.96464000  0.11714000  1
  N  N630  1  0.12278000  0.92970000  0.09590000  1
  N  N631  1  0.67288000  0.06234000  0.91807000  1
  N  N632  1  0.14117000  0.39982000  0.88649000  1
  N  N633  1  0.15046000  0.42731000  0.91917000  1
  N  N634  1  0.51392000  0.58058000  0.29756000  1
  N  N635  1  0.25440000  0.50209000  0.92832000  1
  N  N636  1  0.19650000  0.54603000  0.93998000  1
  N  N637  1  0.89622000  0.38303000  0.96447000  1
  N  N638  1  0.94668000  0.40427000  0.92969000  1
  N  N639  1  0.26516000  0.58187000  0.06236000  1
  N  N640  1  0.92790000  0.09997000  0.61378000  1
  N  N641  1  0.99721000  0.07232000  0.58111000  1
  N  N642  1  0.89176000  0.91944000  0.20238000  1
  N  N643  1  0.18499000  0.99789000  0.57214000  1
  N  N644  1  0.18248000  0.95401000  0.56044000  1
  N  N645  1  0.74384000  0.11678000  0.53554000  1
  N  N646  1  0.78080000  0.09553000  0.57035000  1
  N  N647  1  0.40947000  0.91825000  0.43765000  1
  N  N648  1  0.54192000  0.38588000  0.59980000  1
  N  N649  1  0.57846000  0.41853000  0.57212000  1
  N  N650  1  0.09412000  0.79739000  0.41987000  1
  N  N651  1  0.75699000  0.42764000  0.49793000  1
  N  N652  1  0.74285000  0.43916000  0.45403000  1
  N  N653  1  0.27977000  0.46505000  0.61676000  1
  N  N654  1  0.35150000  0.43023000  0.59547000  1
  N  N655  1  0.84622000  0.56217000  0.41844000  1
  N  N656  1  0.02774000  0.11379000  0.90029000  1
  N  N657  1  0.06867000  0.08111000  0.92822000  1
  N  N658  1  0.81206000  0.70307000  0.08054000  1
  N  N659  1  0.18252000  0.07196000  0.00227000  1
  N  N660  1  0.13601000  0.06060000  0.04620000  1
  N  N661  1  0.86173000  0.03536000  0.88286000  1
  N  N662  1  0.87722000  0.07030000  0.90410000  1
  N  N663  1  0.32711000  0.93766000  0.08193000  1
  O  O664  1  0.91778000  0.66112000  0.14532000  1
  O  O665  1  0.77768000  0.56303000  0.16839000  1
  O  O666  1  0.92255000  0.61592000  0.02865000  1
  O  O667  1  0.66904000  0.58198000  0.11519000  1
  O  O668  1  0.68599000  0.47712000  0.02173000  1
  O  O669  1  0.84880000  0.47581000  0.11654000  1
  O  O670  1  0.24263000  0.62559000  0.97268000  1
  O  O671  1  0.99306000  0.68239000  0.05090000  1
  O  O672  1  0.16033000  0.52970000  0.04447000  1
  O  O673  1  0.22276000  0.83849000  0.35473000  1
  O  O674  1  0.00891000  0.93729000  0.33106000  1
  O  O675  1  0.06666000  0.88423000  0.47120000  1
  O  O676  1  0.86644000  0.91783000  0.38483000  1
  O  O677  1  0.68518000  0.02270000  0.47836000  1
  O  O678  1  0.94028000  0.02464000  0.38212000  1
  O  O679  1  0.34153000  0.87434000  0.52733000  1
  O  O680  1  0.22679000  0.81774000  0.44885000  1
  O  O681  1  0.23488000  0.97023000  0.45564000  1
  O  O682  1  0.57799000  0.64536000  0.33924000  1
  O  O683  1  0.33923000  0.66936000  0.43690000  1
  O  O684  1  0.53736000  0.52901000  0.38422000  1
  O  O685  1  0.25207000  0.61491000  0.41744000  1
  O  O686  1  0.16352000  0.52187000  0.52254000  1
  O  O687  1  0.32128000  0.61869000  0.52450000  1
  O  O688  1  0.86855000  0.47233000  0.37443000  1
  O  O689  1  0.67560000  0.55066000  0.31749000  1
  O  O690  1  0.69033000  0.54446000  0.47035000  1
  O  O691  1  0.06206000  0.85457000  0.16087000  1
  O  O692  1  0.94582000  0.83129000  0.06253000  1
  O  O693  1  0.95013000  0.97123000  0.11594000  1
  O  O694  1  0.78458000  0.88625000  0.08251000  1
  O  O695  1  0.70819000  0.97918000  0.97750000  1
  O  O696  1  0.96517000  0.88181000  0.97527000  1
  O  O697  1  0.21502000  0.02745000  0.12599000  1
  O  O698  1  0.04319000  0.94928000  0.18279000  1
  O  O699  1  0.20427000  0.95548000  0.03027000  1
  O  O700  1  0.08222000  0.33888000  0.85469000  1
  O  O701  1  0.22231000  0.43697000  0.83161000  1
  O  O702  1  0.07745000  0.38408000  0.97135000  1
  O  O703  1  0.33095000  0.41802000  0.88481000  1
  O  O704  1  0.31401000  0.52288000  0.97828000  1
  O  O705  1  0.15119000  0.52419000  0.88347000  1
  O  O706  1  0.75737000  0.37441000  0.02732000  1
  O  O707  1  0.00694000  0.31760000  0.94911000  1
  O  O708  1  0.83967000  0.47030000  0.95553000  1
  O  O709  1  0.77723000  0.16151000  0.64527000  1
  O  O710  1  0.99108000  0.06271000  0.66894000  1
  O  O711  1  0.93333000  0.11577000  0.52880000  1
  O  O712  1  0.13355000  0.08217000  0.61518000  1
  O  O713  1  0.31481000  0.97730000  0.52164000  1
  O  O714  1  0.05973000  0.97535000  0.61788000  1
  O  O715  1  0.65848000  0.12565000  0.47267000  1
  O  O716  1  0.77320000  0.18226000  0.55116000  1
  O  O717  1  0.76511000  0.02977000  0.54436000  1
  O  O718  1  0.42200000  0.35464000  0.66077000  1
  O  O719  1  0.66077000  0.33064000  0.56310000  1
  O  O720  1  0.46264000  0.47098000  0.61578000  1
  O  O721  1  0.74793000  0.38509000  0.58256000  1
  O  O722  1  0.83648000  0.47813000  0.47746000  1
  O  O723  1  0.67872000  0.38131000  0.47550000  1
  O  O724  1  0.13145000  0.52767000  0.62557000  1
  O  O725  1  0.32439000  0.44934000  0.68252000  1
  O  O726  1  0.30967000  0.45553000  0.52965000  1
  O  O727  1  0.93794000  0.14543000  0.83913000  1
  O  O728  1  0.05418000  0.16871000  0.93747000  1
  O  O729  1  0.04987000  0.02877000  0.88406000  1
  O  O730  1  0.21542000  0.11375000  0.91749000  1
  O  O731  1  0.29180000  0.02082000  0.02250000  1
  O  O732  1  0.03483000  0.11819000  0.02473000  1
  O  O733  1  0.78498000  0.97255000  0.87401000  1
  O  O734  1  0.95680000  0.05072000  0.81721000  1
  O  O735  1  0.79573000  0.04452000  0.96974000  1
