# generated using pymatgen
data_DyH11(C7O2)3
_symmetry_space_group_name_H-M   'P 1'
_cell_length_a   8.94335000
_cell_length_b   11.14676000
_cell_length_c   12.41735000
_cell_angle_alpha   68.44790000
_cell_angle_beta   86.20059000
_cell_angle_gamma   79.59934000
_symmetry_Int_Tables_number   1
_chemical_formula_structural   DyH11(C7O2)3
_chemical_formula_sum   'Dy2 H22 C42 O12'
_cell_volume   1132.41324279
_cell_formula_units_Z   2
loop_
 _symmetry_equiv_pos_site_id
 _symmetry_equiv_pos_as_xyz
  1  'x, y, z'
loop_
 _atom_site_type_symbol
 _atom_site_label
 _atom_site_symmetry_multiplicity
 _atom_site_fract_x
 _atom_site_fract_y
 _atom_site_fract_z
 _atom_site_occupancy
  Dy  Dy0  1  0.70202000  0.97914000  0.45014000  1
  Dy  Dy1  1  0.28602000  0.02429000  0.54842000  1
  H  H2  1  0.22119000  0.63333000  0.76482000  1
  H  H3  1  0.99882000  0.30249000  0.84965000  1
  H  H4  1  0.85873000  0.64646000  0.55307000  1
  H  H5  1  0.96222000  0.22245000  0.68561000  1
  H  H6  1  0.78527000  0.10857000  0.63998000  1
  H  H7  1  0.42729000  0.42439000  0.61400000  1
  H  H8  1  0.60504000  0.54451000  0.65450000  1
  H  H9  1  0.99776000  0.33260000  0.02369000  1
  H  H10  1  0.11864000  0.21186000  0.21321000  1
  H  H11  1  0.54156000  0.31265000  0.07189000  1
  H  H12  1  0.42391000  0.43708000  0.88060000  1
  H  H13  1  0.77921000  0.36628000  0.23572000  1
  H  H14  1  0.00082000  0.69729000  0.15037000  1
  H  H15  1  0.14166000  0.35442000  0.44704000  1
  H  H16  1  0.03764000  0.77691000  0.31487000  1
  H  H17  1  0.21425000  0.89122000  0.36024000  1
  H  H18  1  0.57252000  0.57487000  0.38582000  1
  H  H19  1  0.39469000  0.45520000  0.34527000  1
  H  H20  1  0.00211000  0.66790000  0.97580000  1
  H  H21  1  0.88223000  0.78805000  0.78655000  1
  H  H22  1  0.45850000  0.68752000  0.92787000  1
  H  H23  1  0.57599000  0.56370000  0.11838000  1
  C  C24  1  0.05604000  0.79040000  0.57828000  1
  C  C25  1  0.04295000  0.65139000  0.65112000  1
  C  C26  1  0.13849000  0.58374000  0.74679000  1
  C  C27  1  0.12004000  0.45904000  0.82239000  1
  C  C28  1  0.01051000  0.40051000  0.79325000  1
  C  C29  1  0.91373000  0.46435000  0.69772000  1
  C  C30  1  0.93106000  0.59184000  0.62719000  1
  C  C31  1  0.80089000  0.39484000  0.67281000  1
  C  C32  1  0.84545000  0.26884000  0.67113000  1
  C  C33  1  0.74523000  0.20381000  0.64359000  1
  C  C34  1  0.59309000  0.25935000  0.62079000  1
  C  C35  1  0.54518000  0.38182000  0.62857000  1
  C  C36  1  0.64693000  0.44885000  0.65204000  1
  C  C37  1  0.48674000  0.19050000  0.58751000  1
  C  C38  1  0.20062000  0.39132000  0.93485000  1
  C  C39  1  0.11796000  0.32680000  0.03206000  1
  C  C40  1  0.18420000  0.25969000  0.13910000  1
  C  C41  1  0.33873000  0.25306000  0.15402000  1
  C  C42  1  0.42242000  0.31818000  0.05905000  1
  C  C43  1  0.35484000  0.38800000  0.95194000  1
  C  C44  1  0.40668000  0.17699000  0.27098000  1
  C  C45  1  0.94468000  0.20959000  0.42144000  1
  C  C46  1  0.95745000  0.34890000  0.34890000  1
  C  C47  1  0.86192000  0.41617000  0.25311000  1
  C  C48  1  0.87989000  0.54082000  0.17733000  1
  C  C49  1  0.98929000  0.59931000  0.20658000  1
  C  C50  1  0.08628000  0.53583000  0.30199000  1
  C  C51  1  0.06947000  0.40843000  0.37268000  1
  C  C52  1  0.19904000  0.60525000  0.32680000  1
  C  C53  1  0.15455000  0.73097000  0.32898000  1
  C  C54  1  0.25462000  0.79607000  0.35658000  1
  C  C55  1  0.40688000  0.74027000  0.37902000  1
  C  C56  1  0.45470000  0.61782000  0.37107000  1
  C  C57  1  0.35292000  0.55089000  0.34760000  1
  C  C58  1  0.51397000  0.80834000  0.41286000  1
  C  C59  1  0.79947000  0.60867000  0.06477000  1
  C  C60  1  0.88195000  0.67352000  0.96765000  1
  C  C61  1  0.81597000  0.74035000  0.86028000  1
  C  C62  1  0.66176000  0.74737000  0.84421000  1
  C  C63  1  0.57793000  0.68230000  0.93955000  1
  C  C64  1  0.64527000  0.61259000  0.04704000  1
  C  C65  1  0.59335000  0.82519000  0.72707000  1
  O  O66  1  0.95861000  0.85708000  0.49764000  1
  O  O67  1  0.16656000  0.83654000  0.60180000  1
  O  O68  1  0.34360000  0.21694000  0.59765000  1
  O  O69  1  0.54251000  0.09977000  0.54498000  1
  O  O70  1  0.31115000  0.15651000  0.35599000  1
  O  O71  1  0.55071000  0.13798000  0.28184000  1
  O  O72  1  0.04452000  0.14329000  0.50148000  1
  O  O73  1  0.83436000  0.16284000  0.40038000  1
  O  O74  1  0.65704000  0.78260000  0.40189000  1
  O  O75  1  0.45719000  0.90153000  0.45455000  1
  O  O76  1  0.68913000  0.84709000  0.64154000  1
  O  O77  1  0.44967000  0.86301000  0.71746000  1
