# generated using pymatgen
data_H24C45N8
_symmetry_space_group_name_H-M   'P 1'
_cell_length_a   35.12020000
_cell_length_b   35.12020000
_cell_length_c   47.94560000
_cell_angle_alpha   90.00000000
_cell_angle_beta   90.00000000
_cell_angle_gamma   90.00000000
_symmetry_Int_Tables_number   1
_chemical_formula_structural   H24C45N8
_chemical_formula_sum   'H192 C360 N64'
_cell_volume   59137.46699835
_cell_formula_units_Z   8
loop_
 _symmetry_equiv_pos_site_id
 _symmetry_equiv_pos_as_xyz
  1  'x, y, z'
loop_
 _atom_site_type_symbol
 _atom_site_label
 _atom_site_symmetry_multiplicity
 _atom_site_fract_x
 _atom_site_fract_y
 _atom_site_fract_z
 _atom_site_occupancy
  H  25  1  0.87902500  0.97836700  0.05859700  1
  H  26  1  0.82420200  0.96780900  0.08710300  1
  H  27  1  0.77419600  0.96019500  0.12269100  1
  H  28  1  0.73411400  0.95637700  0.16312300  1
  H  29  1  0.81086500  0.02580300  0.20791500  1
  H  30  1  0.92937200  0.04340400  0.12295100  1
  H  31  1  0.88836700  0.95952000  0.18337800  1
  H  32  1  0.95792000  0.00612900  0.24665700  1
  H  33  1  0.94216800  0.06902800  0.23133700  1
  H  34  1  0.81806900  0.09912700  0.14346800  1
  H  35  1  0.91278600  0.12729600  0.21455400  1
  H  36  1  0.87220000  0.17688900  0.19785700  1
  H  66  1  0.64773900  0.55265100  0.05877100  1
  H  67  1  0.70238000  0.56407200  0.08730100  1
  H  68  1  0.75246500  0.57202800  0.12285100  1
  H  69  1  0.79284100  0.57548700  0.16314100  1
  H  70  1  0.71806300  0.50306400  0.20716000  1
  H  71  1  0.59933100  0.48500600  0.12249900  1
  H  72  1  0.63817500  0.56805000  0.18372900  1
  H  73  1  0.57340600  0.51809300  0.24832100  1
  H  74  1  0.59095400  0.45593200  0.23218600  1
  H  75  1  0.71059200  0.43264300  0.13987400  1
  H  76  1  0.62201600  0.39838400  0.21364200  1
  H  77  1  0.66323700  0.35077900  0.19433100  1
  H  107  1  0.04930500  0.37902700  0.55854700  1
  H  108  1  0.05976200  0.32422400  0.58709900  1
  H  109  1  0.06742600  0.27434100  0.62278500  1
  H  110  1  0.07146800  0.23454500  0.66335400  1
  H  111  1  0.00204800  0.31144500  0.70801100  1
  H  112  1  0.98437500  0.42960500  0.62286800  1
  H  113  1  0.06812100  0.38848100  0.68341200  1
  H  114  1  0.02158000  0.45814100  0.74665600  1
  H  115  1  0.95866000  0.44259500  0.73123300  1
  H  116  1  0.92858100  0.31829000  0.64351500  1
  H  117  1  0.90039700  0.41310500  0.71452400  1
  H  118  1  0.85082200  0.37243800  0.69789100  1
  H  148  1  0.47526000  0.14777300  0.55868700  1
  H  149  1  0.46376800  0.20240400  0.58721300  1
  H  150  1  0.45584600  0.25255800  0.62271600  1
  H  151  1  0.45260900  0.29314800  0.66290100  1
  H  152  1  0.52482100  0.21830900  0.70705100  1
  H  153  1  0.54279600  0.09937400  0.62247800  1
  H  154  1  0.45961300  0.13822000  0.68373300  1
  H  155  1  0.50959000  0.07366300  0.74843100  1
  H  156  1  0.57172900  0.09129200  0.73232800  1
  H  157  1  0.59508000  0.21064200  0.63987500  1
  H  158  1  0.62921400  0.12237600  0.71385700  1
  H  159  1  0.67681900  0.16358900  0.69456400  1
  H  189  1  0.14703100  0.05073100  0.96828900  1
  H  190  1  0.20228500  0.06094000  0.94018200  1
  H  191  1  0.25259100  0.06853100  0.90485400  1
  H  192  1  0.29286600  0.07254400  0.86454400  1
  H  193  1  0.21714300  0.00201100  0.81974100  1
  H  194  1  0.09792400  0.98433500  0.90418700  1
  H  195  1  0.13925900  0.06818800  0.84416100  1
  H  196  1  0.07044100  0.02160800  0.78043600  1
  H  197  1  0.08633200  0.95869100  0.79566600  1
  H  198  1  0.20969900  0.92872600  0.88409800  1
  H  199  1  0.11598800  0.90052000  0.81231200  1
  H  200  1  0.15653100  0.85099000  0.82918300  1
  H  230  1  0.38225100  0.47457100  0.96811800  1
  H  231  1  0.32716800  0.46354900  0.93997800  1
  H  232  1  0.27690500  0.45548200  0.90463100  1
  H  233  1  0.23637900  0.45180000  0.86443800  1
  H  234  1  0.31014900  0.52530200  0.82046300  1
  H  235  1  0.42958200  0.54334000  0.90461900  1
  H  236  1  0.39039100  0.46040500  0.84385200  1
  H  237  1  0.45448800  0.51024000  0.77883700  1
  H  238  1  0.43681500  0.57243200  0.79484200  1
  H  239  1  0.31798300  0.59575800  0.88773100  1
  H  240  1  0.40545700  0.62994600  0.81324400  1
  H  241  1  0.36436900  0.67752800  0.83275200  1
  H  271  1  0.97756400  0.64697300  0.46820600  1
  H  272  1  0.96742700  0.70222300  0.44008000  1
  H  273  1  0.95973100  0.75240300  0.40468100  1
  H  274  1  0.95547700  0.79243700  0.36425400  1
  H  275  1  0.02615200  0.71671100  0.31958100  1
  H  276  1  0.04394000  0.59775600  0.40413500  1
  H  277  1  0.96019500  0.63913700  0.34416700  1
  H  278  1  0.00660100  0.56998000  0.28056800  1
  H  279  1  0.06956800  0.58576600  0.29577900  1
  H  280  1  0.09967400  0.70945900  0.38401800  1
  H  281  1  0.12788600  0.61544400  0.31243700  1
  H  282  1  0.17743300  0.65600500  0.32926500  1
  H  312  1  0.55373600  0.88220800  0.46809500  1
  H  313  1  0.56487200  0.82711200  0.43999900  1
  H  314  1  0.57289600  0.77671100  0.40475000  1
  H  315  1  0.57639300  0.73592500  0.36468400  1
  H  316  1  0.50298200  0.80960900  0.32055300  1
  H  317  1  0.48493800  0.92934400  0.40454000  1
  H  318  1  0.56803000  0.89030600  0.34385400  1
  H  319  1  0.51812400  0.95442600  0.27888900  1
  H  320  1  0.45596900  0.93655000  0.29481500  1
  H  321  1  0.43262900  0.81775800  0.38773700  1
  H  322  1  0.39844100  0.90529200  0.31327800  1
  H  323  1  0.35084700  0.86423600  0.33280600  1
  H  339  1  0.06165200  0.08026700  0.96876900  1
  H  340  1  0.05564200  0.14225500  0.98832600  1
  H  341  1  0.02125700  0.15184600  0.03149400  1
  H  342  1  0.99249000  0.09928500  0.05501300  1
  H  344  1  0.98491000  0.04020100  0.08141200  1
  H  346  1  0.04300400  0.98223400  0.95291300  1
  H  357  1  0.46723900  0.44709400  0.96874400  1
  H  358  1  0.47369100  0.38520300  0.98836400  1
  H  359  1  0.50799600  0.37597200  0.03160700  1
  H  360  1  0.53623000  0.42881100  0.05513000  1
  H  362  1  0.54365100  0.48773400  0.08138600  1
  H  364  1  0.48476700  0.54548400  0.95301100  1
  H  375  1  0.94788900  0.56158600  0.46855800  1
  H  376  1  0.88586400  0.55573200  0.48808200  1
  H  377  1  0.87616300  0.52149500  0.53129800  1
  H  378  1  0.92865200  0.49272300  0.55490200  1
  H  380  1  0.98772900  0.48507500  0.58134800  1
  H  382  1  0.04590200  0.54284200  0.45281700  1
  H  393  1  0.58105100  0.96713400  0.46880600  1
  H  394  1  0.64289300  0.97364000  0.48849900  1
  H  395  1  0.65201300  0.00803400  0.53171700  1
  H  396  1  0.59911500  0.03629900  0.55514400  1
  H  398  1  0.54014300  0.04367800  0.58133600  1
  H  400  1  0.48262600  0.98456800  0.45296300  1
  H  411  1  0.73416800  0.33408200  0.10986100  1
  H  412  1  0.74336500  0.31069600  0.06386400  1
  H  413  1  0.76810300  0.24727300  0.05614100  1
  H  414  1  0.78378900  0.20716400  0.09468000  1
  H  416  1  0.77943800  0.16688800  0.13503800  1
  H  418  1  0.73626900  0.33716500  0.18961100  1
  H  429  1  0.69373500  0.23407900  0.60992900  1
  H  430  1  0.71717500  0.24314000  0.56393100  1
  H  431  1  0.78058300  0.26791600  0.55620700  1
  H  432  1  0.82062000  0.28378300  0.59474500  1
  H  434  1  0.86084200  0.27962200  0.63512000  1
  H  436  1  0.69054600  0.23645800  0.68967900  1
  H  447  1  0.29358300  0.69383500  0.91769800  1
  H  448  1  0.28445300  0.71720900  0.96371100  1
  H  449  1  0.25995200  0.78071400  0.97146300  1
  H  450  1  0.24442700  0.82091900  0.93294300  1
  H  452  1  0.24847600  0.86116900  0.89263900  1
  H  454  1  0.29121200  0.69070000  0.83801400  1
  H  465  1  0.33434600  0.79371800  0.41772500  1
  H  466  1  0.31089300  0.78470300  0.46372800  1
  H  467  1  0.24742900  0.76007100  0.47145300  1
  H  468  1  0.20735300  0.74429300  0.43291300  1
  H  470  1  0.16718200  0.74818300  0.39255100  1
  H  472  1  0.33767200  0.79101000  0.33803900  1
  H  483  1  0.58869000  0.88667300  0.25514100  1
  H  484  1  0.58554700  0.86300300  0.20856300  1
  H  485  1  0.63442500  0.87923300  0.17498800  1
  H  486  1  0.68662300  0.91898800  0.18814700  1
  H  488  1  0.74563700  0.93026600  0.21628700  1
  H  490  1  0.62779900  0.92647900  0.31905100  1
  H  501  1  0.93905300  0.64189900  0.25615500  1
  H  502  1  0.94338400  0.66484300  0.20941400  1
  H  503  1  0.89493600  0.64873000  0.17547100  1
  H  504  1  0.84200400  0.60981500  0.18841000  1
  H  506  1  0.78204900  0.59973800  0.21640400  1
  H  508  1  0.89833600  0.60383800  0.31989600  1
  H  519  1  0.14120300  0.08998700  0.75584400  1
  H  520  1  0.16374300  0.08593900  0.70899500  1
  H  521  1  0.14721900  0.13451100  0.67525700  1
  H  522  1  0.10827900  0.18727000  0.68850900  1
  H  524  1  0.09789500  0.24675400  0.71636800  1
  H  526  1  0.10401700  0.13006000  0.81983900  1
  H  537  1  0.38635100  0.44017200  0.75511200  1
  H  538  1  0.36266900  0.44359700  0.70854500  1
  H  539  1  0.37849800  0.39466500  0.67490600  1
  H  540  1  0.41787100  0.34214200  0.68799400  1
  H  542  1  0.42852600  0.28291900  0.71636600  1
  H  544  1  0.42596000  0.40062700  0.81894700  1
  H  555  1  0.43918600  0.14144600  0.77253800  1
  H  556  1  0.44252600  0.16487300  0.81917200  1
  H  557  1  0.39376500  0.14851400  0.85280200  1
  H  558  1  0.34147600  0.10887200  0.83964300  1
  H  560  1  0.28226400  0.09803400  0.81145300  1
  H  562  1  0.39960200  0.10203100  0.70865900  1
  H  573  1  0.08904100  0.38634800  0.77156800  1
  H  574  1  0.08448400  0.36370300  0.81837100  1
  H  575  1  0.13287000  0.37986200  0.85234700  1
  H  576  1  0.18597500  0.41853700  0.83938000  1
  H  578  1  0.24623500  0.42813900  0.81126500  1
  H  580  1  0.13030000  0.42354000  0.70787900  1
  H  591  1  0.88700300  0.93809100  0.27171200  1
  H  592  1  0.86468300  0.94239900  0.31860500  1
  H  593  1  0.88121200  0.89391700  0.35241000  1
  H  594  1  0.91993900  0.84098400  0.33918400  1
  H  596  1  0.92975100  0.78128600  0.31135100  1
  H  598  1  0.92362600  0.89741300  0.20777100  1
  H  609  1  0.64167100  0.58790700  0.27247100  1
  H  610  1  0.66512200  0.58424300  0.31909300  1
  H  611  1  0.64922300  0.63306100  0.35280000  1
  H  612  1  0.61001100  0.68572300  0.33972900  1
  H  614  1  0.59982900  0.74515900  0.31134000  1
  H  616  1  0.60259400  0.62803800  0.20868600  1
  C  1  1  0.86336400  0.07575500  0.16739400  1
  C  2  1  0.89010100  0.08440900  0.18817600  1
  C  3  1  0.90747900  0.05110200  0.19755300  1
  C  4  1  0.89230800  0.01985100  0.18322100  1
  C  5  1  0.90120000  0.98237300  0.19262300  1
  C  6  1  0.92549700  0.97672100  0.21610100  1
  C  7  1  0.94115500  0.00913800  0.22930400  1
  C  8  1  0.93224200  0.04617900  0.22033100  1
  C  9  1  0.89383700  0.12144700  0.19896000  1
  C  10  1  0.86965400  0.15034600  0.18917100  1
  C  11  1  0.84141700  0.14311900  0.16882400  1
  C  12  1  0.83878300  0.10540200  0.15769500  1
  C  13  1  0.87421000  0.02190400  0.13232800  1
  C  14  1  0.84428400  0.99989600  0.12155100  1
  C  15  1  0.81574500  0.99565000  0.14159100  1
  C  16  1  0.82624600  0.01506100  0.16587700  1
  C  17  1  0.78175600  0.97447400  0.14041000  1
  C  18  1  0.75851900  0.97209100  0.16427400  1
  C  19  1  0.76875500  0.99025500  0.18959600  1
  C  20  1  0.80259600  0.01256100  0.18991900  1
  C  21  1  0.90720800  0.02778500  0.11525600  1
  C  22  1  0.90980800  0.01188900  0.08776000  1
  C  23  1  0.87845000  0.99031700  0.07809200  1
  C  24  1  0.84602100  0.98406400  0.09465200  1
  C  37  1  0.86427800  0.03352000  0.16181400  1
  C  42  1  0.66666667  0.45336600  0.16608700  1
  C  43  1  0.64155500  0.44310200  0.18756200  1
  C  44  1  0.62337100  0.47559000  0.19774900  1
  C  45  1  0.63655700  0.50766000  0.18329700  1
  C  46  1  0.62659700  0.54463900  0.19311200  1
  C  47  1  0.60329200  0.54908900  0.21724400  1
  C  48  1  0.58950200  0.51590900  0.23057400  1
  C  49  1  0.59951000  0.47931400  0.22116100  1
  C  50  1  0.63996300  0.40552500  0.19770400  1
  C  51  1  0.66455800  0.37784000  0.18649700  1
  C  52  1  0.69131200  0.38698000  0.16538800  1
  C  53  1  0.69132400  0.42502700  0.15484400  1
  C  54  1  0.65385500  0.50790500  0.13205000  1
  C  55  1  0.68318600  0.53087500  0.12145600  1
  C  56  1  0.71181300  0.53522000  0.14140300  1
  C  57  1  0.70195900  0.51490700  0.16542700  1
  C  58  1  0.74536100  0.55709600  0.14038200  1
  C  59  1  0.76879200  0.55922600  0.16415900  1
  C  60  1  0.75919600  0.54006900  0.18922300  1
  C  61  1  0.72584800  0.51705600  0.18935300  1
  C  62  1  0.62099900  0.50145800  0.11497700  1
  C  63  1  0.61795300  0.51779400  0.08765500  1
  C  64  1  0.64867000  0.54039900  0.07815800  1
  C  65  1  0.68096500  0.54719300  0.09473600  1
  C  78  1  0.66435300  0.49564100  0.16126700  1
  C  83  1  0.95191800  0.36368600  0.66735800  1
  C  84  1  0.94324200  0.39053600  0.68805900  1
  C  85  1  0.97657300  0.40782600  0.69749200  1
  C  86  1  0.00781700  0.39261200  0.68317600  1
  C  87  1  0.04529500  0.40139600  0.69262900  1
  C  88  1  0.05095400  0.42555900  0.71617800  1
  C  89  1  0.01856200  0.44136200  0.72931400  1
  C  90  1  0.98151600  0.43254400  0.72029700  1
  C  91  1  0.90624600  0.39413300  0.69894600  1
  C  92  1  0.87735100  0.36992100  0.68917900  1
  C  93  1  0.88457200  0.34168400  0.66883300  1
  C  94  1  0.92229100  0.33904700  0.65770600  1
  C  95  1  0.00581000  0.37443400  0.63229800  1
  C  96  1  0.02772900  0.34443500  0.62153600  1
  C  97  1  0.03197300  0.31595500  0.64161200  1
  C  98  1  0.01265200  0.32658200  0.66590700  1
  C  99  1  0.05318400  0.28198500  0.64050300  1
  C  100  1  0.05568900  0.25891000  0.66444200  1
  C  101  1  0.03761300  0.26929600  0.68976300  1
  C  102  1  0.01521200  0.30306800  0.69001100  1
  C  103  1  0.99995300  0.40739600  0.61519100  1
  C  104  1  0.01584400  0.40991000  0.58769300  1
  C  105  1  0.03736100  0.37850300  0.57804700  1
  C  106  1  0.04356100  0.34609500  0.59463400  1
  C  119  1  0.99415300  0.36457700  0.66178500  1
  C  124  1  0.57433400  0.16666200  0.66608600  1
  C  125  1  0.58459000  0.14163100  0.68757500  1
  C  126  1  0.55207000  0.12353700  0.69780100  1
  C  127  1  0.52000600  0.13653600  0.68324100  1
  C  128  1  0.48303300  0.12671700  0.69315800  1
  C  129  1  0.47857400  0.10338700  0.71727700  1
  C  130  1  0.51176000  0.08973800  0.73067200  1
  C  131  1  0.54834900  0.09977900  0.72126900  1
  C  132  1  0.62211300  0.14020700  0.69784100  1
  C  133  1  0.64979500  0.16482100  0.68665700  1
  C  134  1  0.64070000  0.19147900  0.66547300  1
  C  135  1  0.60267900  0.19140700  0.65487100  1
  C  136  1  0.51983500  0.15387500  0.63202500  1
  C  137  1  0.49684300  0.18318000  0.62142100  1
  C  138  1  0.49252300  0.21185000  0.64134300  1
  C  139  1  0.51282200  0.20202200  0.66538100  1
  C  140  1  0.47075000  0.24546300  0.64026300  1
  C  141  1  0.46874800  0.26901800  0.66397900  1
  C  142  1  0.48793100  0.25949400  0.68904700  1
  C  143  1  0.51082600  0.22605700  0.68923700  1
  C  144  1  0.52633000  0.12102600  0.61494700  1
  C  145  1  0.51004000  0.11797000  0.58761000  1
  C  146  1  0.48745500  0.14869200  0.57809500  1
  C  147  1  0.48061900  0.18098000  0.59467000  1
  C  160  1  0.53206500  0.16439100  0.66124900  1
  C  165  1  0.16445800  0.95196600  0.86005400  1
  C  166  1  0.13799700  0.94330100  0.83908400  1
  C  167  1  0.12077200  0.97662400  0.82958600  1
  C  168  1  0.13547700  0.00784800  0.84420500  1
  C  169  1  0.12662000  0.04532700  0.83478600  1
  C  170  1  0.10253700  0.05098800  0.81119400  1
  C  171  1  0.08706700  0.01858400  0.79785600  1
  C  172  1  0.09613100  0.98153900  0.80673300  1
  C  173  1  0.13468300  0.90635100  0.82807200  1
  C  174  1  0.15880200  0.87748200  0.83799100  1
  C  175  1  0.18672800  0.88473700  0.85855800  1
  C  176  1  0.18913900  0.92241900  0.86975600  1
  C  177  1  0.15329500  0.00565900  0.89512500  1
  C  178  1  0.18293900  0.02804400  0.90591600  1
  C  179  1  0.21157700  0.03244600  0.88596600  1
  C  180  1  0.20141600  0.01280900  0.86170100  1
  C  181  1  0.24530000  0.05404300  0.88716600  1
  C  182  1  0.26866600  0.05651500  0.86337400  1
  C  183  1  0.25881100  0.03804800  0.83808500  1
  C  184  1  0.22520900  0.01537700  0.83773700  1
  C  185  1  0.12014800  0.99972500  0.91204000  1
  C  186  1  0.11714800  0.01600300  0.93937500  1
  C  187  1  0.14812700  0.03812300  0.94902700  1
  C  188  1  0.18077700  0.04423300  0.93268200  1
  C  201  1  0.16343900  0.99417500  0.86565200  1
  C  206  1  0.36181500  0.57510800  0.86135700  1
  C  207  1  0.38658700  0.58535000  0.83969700  1
  C  208  1  0.40457400  0.55282800  0.82939000  1
  C  209  1  0.39175800  0.52080600  0.84406900  1
  C  210  1  0.40170700  0.48381300  0.83428900  1
  C  211  1  0.42491300  0.47930900  0.81011400  1
  C  212  1  0.43844600  0.51246300  0.79660900  1
  C  213  1  0.42834700  0.54907500  0.80593400  1
  C  214  1  0.38784600  0.62285900  0.82939400  1
  C  215  1  0.36329600  0.65051200  0.84069400  1
  C  216  1  0.33686300  0.64137500  0.86201600  1
  C  217  1  0.33705400  0.60337700  0.87262600  1
  C  218  1  0.37479600  0.52071500  0.89538300  1
  C  219  1  0.34570200  0.49745200  0.90599700  1
  C  220  1  0.31698900  0.49295900  0.88613100  1
  C  221  1  0.32650500  0.51351100  0.86214600  1
  C  222  1  0.28370700  0.47067600  0.88715500  1
  C  223  1  0.26020600  0.46839200  0.86342200  1
  C  224  1  0.26944500  0.48782800  0.83839800  1
  C  225  1  0.30254400  0.51119900  0.83826400  1
  C  226  1  0.40780600  0.52717600  0.91230700  1
  C  227  1  0.41120500  0.51049600  0.93947300  1
  C  228  1  0.38081800  0.48744600  0.94896300  1
  C  229  1  0.34829600  0.48082900  0.93259600  1
  C  242  1  0.36410100  0.53285600  0.86618400  1
  C  247  1  0.07639600  0.66427700  0.35993900  1
  C  248  1  0.08505900  0.63765900  0.33907400  1
  C  249  1  0.05172400  0.62045600  0.32958600  1
  C  250  1  0.02052100  0.63534200  0.34412500  1
  C  251  1  0.98302500  0.62644400  0.33478600  1
  C  252  1  0.97730200  0.60231500  0.31122800  1
  C  253  1  0.00967100  0.58671100  0.29792900  1
  C  254  1  0.04674000  0.59572300  0.30679300  1
  C  255  1  0.12204400  0.63422300  0.32814100  1
  C  256  1  0.15092200  0.65836000  0.33803100  1
  C  257  1  0.14366700  0.68638600  0.35852700  1
  C  258  1  0.10598600  0.68884600  0.36972100  1
  C  259  1  0.02272900  0.65316900  0.39506900  1
  C  260  1  0.00036300  0.68283900  0.40584500  1
  C  261  1  0.99593500  0.71142900  0.38586800  1
  C  262  1  0.01555800  0.70121800  0.36161000  1
  C  263  1  0.97424700  0.74509900  0.38700700  1
  C  264  1  0.97161600  0.76831100  0.36314500  1
  C  265  1  0.99003500  0.75835600  0.33786000  1
  C  266  1  0.01283100  0.72484900  0.33757600  1
  C  267  1  0.02861800  0.62002600  0.41199200  1
  C  268  1  0.01229300  0.61705300  0.43931000  1
  C  269  1  0.99020900  0.64806100  0.44895700  1
  C  270  1  0.98417000  0.68072000  0.43261300  1
  C  283  1  0.03420200  0.66326000  0.36558900  1
  C  288  1  0.45333800  0.86144200  0.36125100  1
  C  289  1  0.44309000  0.88622900  0.33961000  1
  C  290  1  0.47559600  0.90430100  0.32935000  1
  C  291  1  0.50762300  0.89149900  0.34403600  1
  C  292  1  0.54460700  0.90158500  0.33429300  1
  C  293  1  0.54909200  0.92488500  0.31016200  1
  C  294  1  0.51592300  0.93839800  0.29667000  1
  C  295  1  0.47932300  0.92819900  0.30596100  1
  C  296  1  0.40555100  0.88761000  0.32937700  1
  C  297  1  0.37788600  0.86309400  0.34070100  1
  C  298  1  0.38701400  0.83665300  0.36202300  1
  C  299  1  0.42502400  0.83681800  0.37262200  1
  C  300  1  0.50765400  0.87457700  0.39535000  1
  C  301  1  0.53096000  0.84554000  0.40599300  1
  C  302  1  0.53545900  0.81676200  0.38617100  1
  C  303  1  0.51494600  0.82622900  0.36215400  1
  C  304  1  0.55774500  0.78348400  0.38724700  1
  C  305  1  0.55991200  0.75982300  0.36359300  1
  C  306  1  0.54040500  0.76892300  0.33857300  1
  C  307  1  0.51715300  0.80211200  0.33834800  1
  C  308  1  0.50112800  0.90760100  0.41225000  1
  C  309  1  0.51776000  0.91105800  0.43943300  1
  C  310  1  0.54086300  0.88072500  0.44894200  1
  C  311  1  0.54754300  0.84819100  0.43260300  1
  C  324  1  0.49557300  0.86382300  0.36614200  1
  C  329  1  0.99259200  0.02496500  0.03985300  1
  C  330  1  0.01073000  0.05637600  0.02638500  1
  C  331  1  0.03183800  0.05049100  0.00092800  1
  C  332  1  0.03544500  0.01296200  0.98968200  1
  C  335  1  0.04771400  0.08270200  0.98734000  1
  C  336  1  0.04406900  0.11945000  0.99852500  1
  C  337  1  0.02416000  0.12501000  0.02350000  1
  C  338  1  0.00751500  0.09387000  0.03719200  1
  C  343  1  0.97254400  0.02718200  0.06542800  1
  C  345  1  0.05477800  0.00200000  0.96493900  1
  C  347  1  0.53549000  0.50312700  0.03990400  1
  C  348  1  0.51768600  0.47152700  0.02644800  1
  C  349  1  0.49661200  0.47720200  0.00095900  1
  C  350  1  0.49272000  0.51469900  0.98971300  1
  C  353  1  0.48109700  0.44482400  0.98735400  1
  C  354  1  0.48502100  0.40812200  0.99857300  1
  C  355  1  0.50487800  0.40277100  0.02359100  1
  C  356  1  0.52119300  0.43407800  0.03729100  1
  C  361  1  0.55564400  0.50112200  0.06541200  1
  C  363  1  0.47329200  0.52550200  0.96500200  1
  C  365  1  0.00299100  0.49267100  0.53978700  1
  C  366  1  0.97162700  0.51083200  0.52628200  1
  C  367  1  0.97758100  0.53185700  0.50080300  1
  C  368  1  0.01512600  0.53534200  0.48957100  1
  C  371  1  0.94541100  0.54774800  0.48716700  1
  C  372  1  0.90864300  0.54418600  0.49832900  1
  C  373  1  0.90302300  0.52437700  0.52333900  1
  C  374  1  0.93411600  0.50772000  0.53707700  1
  C  379  1  0.00070700  0.47266000  0.56536600  1
  C  381  1  0.02616300  0.55465600  0.46484500  1
  C  383  1  0.52483500  0.03550300  0.53983900  1
  C  384  1  0.55646700  0.01768100  0.52643200  1
  C  385  1  0.55085700  0.99655600  0.50095700  1
  C  386  1  0.51339200  0.99264100  0.48965700  1
  C  389  1  0.58327200  0.98101500  0.48741300  1
  C  390  1  0.61994300  0.98496100  0.49867500  1
  C  391  1  0.62523100  0.00487300  0.52367900  1
  C  392  1  0.59389000  0.02122000  0.53731700  1
  C  397  1  0.52676900  0.05566600  0.56535300  1
  C  399  1  0.50263700  0.97314800  0.46495400  1
  C  401  1  0.77736800  0.22268400  0.14979800  1
  C  402  1  0.76746200  0.24626500  0.12664700  1
  C  403  1  0.75256800  0.28403900  0.13134100  1
  C  404  1  0.74733400  0.29731600  0.15925800  1
  C  407  1  0.74408500  0.30699700  0.10779800  1
  C  408  1  0.74956100  0.29358300  0.08051500  1
  C  409  1  0.76387500  0.25687800  0.07603300  1
  C  410  1  0.77284400  0.23352200  0.09884200  1
  C  415  1  0.79131800  0.18510500  0.14824700  1
  C  417  1  0.73345600  0.33271500  0.16918500  1
  C  419  1  0.80503900  0.27753800  0.64986600  1
  C  420  1  0.78149400  0.26752900  0.62671600  1
  C  421  1  0.74372700  0.25261800  0.63141100  1
  C  422  1  0.73040700  0.24748300  0.65932600  1
  C  425  1  0.72081100  0.24402500  0.60786800  1
  C  426  1  0.73425600  0.24941800  0.58058300  1
  C  427  1  0.77095300  0.26375000  0.57610100  1
  C  428  1  0.79427300  0.27281200  0.59891000  1
  C  433  1  0.84261300  0.29151300  0.64831200  1
  C  435  1  0.69500200  0.23360300  0.66925800  1
  C  437  1  0.25081300  0.80540900  0.87780900  1
  C  438  1  0.26066900  0.78181000  0.90095800  1
  C  439  1  0.27546100  0.74400600  0.89624900  1
  C  440  1  0.28064100  0.73074500  0.86832400  1
  C  443  1  0.28382400  0.72097600  0.91978000  1
  C  444  1  0.27837000  0.73437600  0.94706900  1
  C  445  1  0.26419700  0.77113300  0.95156800  1
  C  446  1  0.25531800  0.79454400  0.92876900  1
  C  451  1  0.23678100  0.84294300  0.87935100  1
  C  453  1  0.29432400  0.69529600  0.85840200  1
  C  455  1  0.22297200  0.75050900  0.37778900  1
  C  456  1  0.24650300  0.76049500  0.40094600  1
  C  457  1  0.28428700  0.77535200  0.39625100  1
  C  458  1  0.29759500  0.78046600  0.36833200  1
  C  461  1  0.30723700  0.78386900  0.41979200  1
  C  462  1  0.29378300  0.77849600  0.44707700  1
  C  463  1  0.25705400  0.76424200  0.45156000  1
  C  464  1  0.23371700  0.75522100  0.42875000  1
  C  469  1  0.18544800  0.73644900  0.37930900  1
  C  471  1  0.33303100  0.79421000  0.35841200  1
  C  473  1  0.70077400  0.95071600  0.23876400  1
  C  474  1  0.66929400  0.92779800  0.23030100  1
  C  475  1  0.63984900  0.91889400  0.25006900  1
  C  476  1  0.64252300  0.93353500  0.27776100  1
  C  479  1  0.60963000  0.89464800  0.24158200  1
  C  480  1  0.60759700  0.88034900  0.21428000  1
  C  481  1  0.63589700  0.88968800  0.19486500  1
  C  482  1  0.66649500  0.91297400  0.20283800  1
  C  487  1  0.73462100  0.95438900  0.22361400  1
  C  489  1  0.61761400  0.92479900  0.29976700  1
  C  491  1  0.82650200  0.57902900  0.23913800  1
  C  492  1  0.85839900  0.60145500  0.23080300  1
  C  493  1  0.88755300  0.61031600  0.25080100  1
  C  494  1  0.88414200  0.59616800  0.27858200  1
  C  497  1  0.91825900  0.63402300  0.24243700  1
  C  498  1  0.92099800  0.64787900  0.21504400  1
  C  499  1  0.89294900  0.63860800  0.19541600  1
  C  500  1  0.86190700  0.61582600  0.20325700  1
  C  505  1  0.79295200  0.57552400  0.22365800  1
  C  507  1  0.90885100  0.60487200  0.30068900  1
  C  509  1  0.07778800  0.20240400  0.73940000  1
  C  510  1  0.10026400  0.17062300  0.73088900  1
  C  511  1  0.10936700  0.14138600  0.75076500  1
  C  512  1  0.09546500  0.14464500  0.77862200  1
  C  515  1  0.13309300  0.11079200  0.74221200  1
  C  516  1  0.14673400  0.10823000  0.71475400  1
  C  517  1  0.13721900  0.13634800  0.69524400  1
  C  518  1  0.11442700  0.16729100  0.70327400  1
  C  523  1  0.07382100  0.23597000  0.72397500  1
  C  525  1  0.10403600  0.11963500  0.80055900  1
  C  527  1  0.44950800  0.32764100  0.73857600  1
  C  528  1  0.42683500  0.35931500  0.73015400  1
  C  529  1  0.41817900  0.38878200  0.74996000  1
  C  530  1  0.43280300  0.38590900  0.77764400  1
  C  533  1  0.39416100  0.41920600  0.74151900  1
  C  534  1  0.37985600  0.42140800  0.71422600  1
  C  535  1  0.38896500  0.39307900  0.69477500  1
  C  536  1  0.41201100  0.36227900  0.70270500  1
  C  541  1  0.45287400  0.29376000  0.72344100  1
  C  543  1  0.42433700  0.41085800  0.79967500  1
  C  545  1  0.32706900  0.07747300  0.78896500  1
  C  546  1  0.35862600  0.10028900  0.79742400  1
  C  547  1  0.38801100  0.10924800  0.77762300  1
  C  548  1  0.38522600  0.09475300  0.74989300  1
  C  551  1  0.41829000  0.13341600  0.78611800  1
  C  552  1  0.42043700  0.14757900  0.81345300  1
  C  553  1  0.39220500  0.13816700  0.83290000  1
  C  554  1  0.36154700  0.11495800  0.82492400  1
  C  559  1  0.29323900  0.07387700  0.80415500  1
  C  561  1  0.41010300  0.10357400  0.72785800  1
  C  563  1  0.20175700  0.44892400  0.78857900  1
  C  564  1  0.16975200  0.42666700  0.79692400  1
  C  565  1  0.14062800  0.41779700  0.77690500  1
  C  566  1  0.14418200  0.43176600  0.74908400  1
  C  569  1  0.10981400  0.39424600  0.78529400  1
  C  570  1  0.10694500  0.38055900  0.81272500  1
  C  571  1  0.13496000  0.38985600  0.83237200  1
  C  572  1  0.16610300  0.41248700  0.82451300  1
  C  577  1  0.23523100  0.45239000  0.80414700  1
  C  579  1  0.11936900  0.42315600  0.72699500  1
  C  581  1  0.95007800  0.82550000  0.28824500  1
  C  582  1  0.92777500  0.85741100  0.29674000  1
  C  583  1  0.91868600  0.88660500  0.27682200  1
  C  584  1  0.93244200  0.88318800  0.24893600  1
  C  587  1  0.89510400  0.91731400  0.28536900  1
  C  588  1  0.88159000  0.92002700  0.31285200  1
  C  589  1  0.89110600  0.89196100  0.33240200  1
  C  590  1  0.91376300  0.86091000  0.32438600  1
  C  595  1  0.95385400  0.79192400  0.30369800  1
  C  597  1  0.92381700  0.90815400  0.22695700  1
  C  599  1  0.57871900  0.70053200  0.28908600  1
  C  600  1  0.60125900  0.66875800  0.29749800  1
  C  601  1  0.60993700  0.63935100  0.27765000  1
  C  602  1  0.59546100  0.64236900  0.24993100  1
  C  605  1  0.63384400  0.60883500  0.28608700  1
  C  606  1  0.64801200  0.60649500  0.31341300  1
  C  607  1  0.63886700  0.63476100  0.33290600  1
  C  608  1  0.61592300  0.66564300  0.32498300  1
  C  613  1  0.57545000  0.73438400  0.30427200  1
  C  615  1  0.60400600  0.61745700  0.22786900  1
  N  38  1  0.74665700  0.98633700  0.21245700  1
  N  39  1  0.81946100  0.17362700  0.16329100  1
  N  40  1  0.93299400  0.94380000  0.22913900  1
  N  41  1  0.93828400  0.01469300  0.06879100  1
  N  79  1  0.78134300  0.54371900  0.21207200  1
  N  80  1  0.71529600  0.35987300  0.15555800  1
  N  81  1  0.59504000  0.58175400  0.23044200  1
  N  82  1  0.58957300  0.51447100  0.06870400  1
  N  120  1  0.04175600  0.24745800  0.71272400  1
  N  121  1  0.85407400  0.31969400  0.66332700  1
  N  122  1  0.08391400  0.43301900  0.72917600  1
  N  123  1  0.01311000  0.43837200  0.56871900  1
  N  161  1  0.48453100  0.28188500  0.71179200  1
  N  162  1  0.66781300  0.21546700  0.65564500  1
  N  163  1  0.44592300  0.09509500  0.73049400  1
  N  164  1  0.51341200  0.08959400  0.56864900  1
  N  202  1  0.28104100  0.04196500  0.81528200  1
  N  203  1  0.20874200  0.85432100  0.86417100  1
  N  204  1  0.09497600  0.08395800  0.79824800  1
  N  205  1  0.08767800  0.01502200  0.95753300  1
  N  243  1  0.24722200  0.48415500  0.81558000  1
  N  244  1  0.31294300  0.66842200  0.87196900  1
  N  245  1  0.43318100  0.44659800  0.79698000  1
  N  246  1  0.44063000  0.51194800  0.95759600  1
  N  284  1  0.98588700  0.78033800  0.31496100  1
  N  285  1  0.17409900  0.70837900  0.36414400  1
  N  286  1  0.94426700  0.59478400  0.29834600  1
  N  287  1  0.01320100  0.58758300  0.45745800  1
  N  325  1  0.54382400  0.74641200  0.31588500  1
  N  326  1  0.35994700  0.81276100  0.37198600  1
  N  327  1  0.58179100  0.93329900  0.29705500  1
  N  328  1  0.51624800  0.94050800  0.45754300  1
  N  333  1  0.01665800  0.98522300  0.00408200  1
  N  334  1  0.99705700  0.99058800  0.02714000  1
  N  351  1  0.51119400  0.54263400  0.00410700  1
  N  352  1  0.53078100  0.53745800  0.02718100  1
  N  369  1  0.04282500  0.51657200  0.50401700  1
  N  370  1  0.03739600  0.49704200  0.52709900  1
  N  387  1  0.48541900  0.01112000  0.50401300  1
  N  388  1  0.49053300  0.03074900  0.52707900  1
  N  405  1  0.75790100  0.27225500  0.17956800  1
  N  406  1  0.77164200  0.23806000  0.17543700  1
  N  423  1  0.75543200  0.25814400  0.67963300  1
  N  424  1  0.78962600  0.27189800  0.67550300  1
  N  441  1  0.27015300  0.75582800  0.84801300  1
  N  442  1  0.25649500  0.79004500  0.85216100  1
  N  459  1  0.27257500  0.76985400  0.34801500  1
  N  460  1  0.23837900  0.75614100  0.35214900  1
  N  477  1  0.67394600  0.95477600  0.28365900  1
  N  478  1  0.70103600  0.96255500  0.26572600  1
  N  495  1  0.85240200  0.57533900  0.28434300  1
  N  496  1  0.82559100  0.56760000  0.26618500  1
  N  513  1  0.07452700  0.17624600  0.78455400  1
  N  514  1  0.06654900  0.20311800  0.76649800  1
  N  531  1  0.45382500  0.35432600  0.78350200  1
  N  532  1  0.46136700  0.32721900  0.76553200  1
  N  549  1  0.35374000  0.07358300  0.74400800  1
  N  550  1  0.32669300  0.06577000  0.76197000  1
  N  567  1  0.17600900  0.45246100  0.74331900  1
  N  568  1  0.20279700  0.46020300  0.76149800  1
  N  585  1  0.95323300  0.85148000  0.24302700  1
  N  586  1  0.96118300  0.82464000  0.26112100  1
  N  603  1  0.57454200  0.67403200  0.24409500  1
  N  604  1  0.56698800  0.70108700  0.26210100  1
