# generated using pymatgen
data_Mn2H31(C11O5)2
_symmetry_space_group_name_H-M   'P 1'
_cell_length_a   13.14554000
_cell_length_b   14.18650000
_cell_length_c   18.65440000
_cell_angle_alpha   89.99955000
_cell_angle_beta   90.00045000
_cell_angle_gamma   89.99910000
_symmetry_Int_Tables_number   1
_chemical_formula_structural   Mn2H31(C11O5)2
_chemical_formula_sum   'Mn8 H124 C88 O40'
_cell_volume   3478.84419172
_cell_formula_units_Z   4
loop_
 _symmetry_equiv_pos_site_id
 _symmetry_equiv_pos_as_xyz
  1  'x, y, z'
loop_
 _atom_site_type_symbol
 _atom_site_label
 _atom_site_symmetry_multiplicity
 _atom_site_fract_x
 _atom_site_fract_y
 _atom_site_fract_z
 _atom_site_occupancy
  Mn  Mn0  1  0.75679000  0.48919000  0.57065000  1
  Mn  Mn1  1  0.71175000  0.51396000  0.40524000  1
  Mn  Mn2  1  0.74319000  0.51074000  0.06893000  1
  Mn  Mn3  1  0.78878000  0.48595000  0.90418000  1
  Mn  Mn4  1  0.24265000  0.98883000  0.92729000  1
  Mn  Mn5  1  0.28747000  0.01297000  0.08967000  1
  Mn  Mn6  1  0.26107000  0.01392000  0.41715000  1
  Mn  Mn7  1  0.21858000  0.98920000  0.57882000  1
  H  H8  1  0.27482000  0.27295000  0.65808000  1
  H  H9  1  0.17671000  0.30645000  0.59887000  1
  H  H10  1  0.27386000  0.38791000  0.61957000  1
  H  H11  1  0.29485000  0.29995000  0.42857000  1
  H  H12  1  0.21144000  0.36551000  0.48361000  1
  H  H13  1  0.32615000  0.49159000  0.48743000  1
  H  H14  1  0.40177000  0.43033000  0.42448000  1
  H  H15  1  0.42203000  0.44288000  0.58615000  1
  H  H16  1  0.46644000  0.19772000  0.63614000  1
  H  H17  1  0.43512000  0.31175000  0.66871000  1
  H  H18  1  0.55538000  0.29280000  0.62944000  1
  H  H19  1  0.48748000  0.16794000  0.50450000  1
  H  H20  1  0.57345000  0.26458000  0.49761000  1
  H  H21  1  0.46606000  0.25823000  0.44043000  1
  H  H22  1  0.07487000  0.45423000  0.42520000  1
  H  H23  1  0.15962000  0.54638000  0.40046000  1
  H  H24  1  0.03937000  0.53675000  0.35765000  1
  H  H25  1  0.05190000  0.59689000  0.58367000  1
  H  H26  1  0.13059000  0.51366000  0.54186000  1
  H  H27  1  0.25740000  0.62918000  0.52220000  1
  H  H28  1  0.18717000  0.70170000  0.58032000  1
  H  H29  1  0.20249000  0.70404000  0.41937000  1
  H  H30  1  0.03170000  0.79614000  0.35764000  1
  H  H31  1  0.94624000  0.69838000  0.35294000  1
  H  H32  1  0.07635000  0.68371000  0.33168000  1
  H  H33  1  0.97899000  0.83163000  0.47957000  1
  H  H34  1  0.99093000  0.74925000  0.55066000  1
  H  H35  1  0.89438000  0.73361000  0.48479000  1
  H  H36  1  0.64065000  0.53138000  0.80974000  1
  H  H37  1  0.60519000  0.47438000  0.72726000  1
  H  H38  1  0.65609000  0.59007000  0.72505000  1
  H  H39  1  0.22314000  0.72991000  0.15458000  1
  H  H40  1  0.32377000  0.69523000  0.09717000  1
  H  H41  1  0.22514000  0.61367000  0.11732000  1
  H  H42  1  0.20575000  0.69601000  0.92560000  1
  H  H43  1  0.28748000  0.63277000  0.98231000  1
  H  H44  1  0.17303000  0.50685000  0.98712000  1
  H  H45  1  0.09683000  0.56715000  0.92471000  1
  H  H46  1  0.07833000  0.55774000  0.08615000  1
  H  H47  1  0.03465000  0.80224000  0.13547000  1
  H  H48  1  0.06593000  0.68816000  0.16801000  1
  H  H49  1  0.94565000  0.70740000  0.12880000  1
  H  H50  1  0.01208000  0.83136000  0.00473000  1
  H  H51  1  0.92540000  0.73557000  0.99727000  1
  H  H52  1  0.03269000  0.74224000  0.93990000  1
  H  H53  1  0.42528000  0.54582000  0.92553000  1
  H  H54  1  0.34041000  0.45410000  0.90055000  1
  H  H55  1  0.46094000  0.46334000  0.85794000  1
  H  H56  1  0.44637000  0.40077000  0.08358000  1
  H  H57  1  0.36750000  0.48432000  0.04161000  1
  H  H58  1  0.24064000  0.36965000  0.02171000  1
  H  H59  1  0.31296000  0.29423000  0.07675000  1
  H  H60  1  0.29797000  0.29948000  0.91617000  1
  H  H61  1  0.46926000  0.20404000  0.85696000  1
  H  H62  1  0.55463000  0.30180000  0.85224000  1
  H  H63  1  0.42462000  0.31610000  0.83074000  1
  H  H64  1  0.52070000  0.16786000  0.97976000  1
  H  H65  1  0.50748000  0.25128000  0.05019000  1
  H  H66  1  0.60372000  0.26684000  0.98442000  1
  H  H67  1  0.86010000  0.46844000  0.30934000  1
  H  H68  1  0.89552000  0.52525000  0.22712000  1
  H  H69  1  0.84491000  0.40963000  0.22488000  1
  H  H70  1  0.72348000  0.77052000  0.84517000  1
  H  H71  1  0.82394000  0.80494000  0.90265000  1
  H  H72  1  0.72523000  0.88603000  0.88281000  1
  H  H73  1  0.70542000  0.80362000  0.07426000  1
  H  H74  1  0.78771000  0.86715000  0.01770000  1
  H  H75  1  0.67298000  0.99324000  0.01279000  1
  H  H76  1  0.59624000  0.93242000  0.07505000  1
  H  H77  1  0.57812000  0.94189000  0.91388000  1
  H  H78  1  0.53452000  0.69755000  0.86419000  1
  H  H79  1  0.56550000  0.81154000  0.83165000  1
  H  H80  1  0.44582000  0.79238000  0.87116000  1
  H  H81  1  0.51220000  0.66847000  0.99528000  1
  H  H82  1  0.42556000  0.76462000  0.00265000  1
  H  H83  1  0.53331000  0.75816000  0.05993000  1
  H  H84  1  0.92525000  0.95413000  0.07445000  1
  H  H85  1  0.84019000  0.04601000  0.09939000  1
  H  H86  1  0.96137000  0.03701000  0.14179000  1
  H  H87  1  0.94590000  0.09887000  0.91604000  1
  H  H88  1  0.86733000  0.01601000  0.95822000  1
  H  H89  1  0.74072000  0.13047000  0.97830000  1
  H  H90  1  0.81248000  0.20532000  0.92275000  1
  H  H91  1  0.79756000  0.20084000  0.08375000  1
  H  H92  1  0.96911000  0.29603000  0.14280000  1
  H  H93  1  0.05447000  0.19795000  0.14738000  1
  H  H94  1  0.92421000  0.18351000  0.16889000  1
  H  H95  1  0.02084000  0.33213000  0.02029000  1
  H  H96  1  0.00816000  0.24907000  0.94959000  1
  H  H97  1  0.10374000  0.23321000  0.01557000  1
  H  H98  1  0.36551000  0.03378000  0.69032000  1
  H  H99  1  0.39477000  0.97492000  0.77331000  1
  H  H100  1  0.34445000  0.08976000  0.77537000  1
  H  H101  1  0.77674000  0.22899000  0.34487000  1
  H  H102  1  0.67645000  0.19464000  0.40234000  1
  H  H103  1  0.77513000  0.11345000  0.38230000  1
  H  H104  1  0.79250000  0.19793000  0.57395000  1
  H  H105  1  0.71061000  0.13412000  0.51782000  1
  H  H106  1  0.82556000  0.00781000  0.51374000  1
  H  H107  1  0.89855000  0.06722000  0.57866000  1
  H  H108  1  0.92589000  0.05570000  0.41799000  1
  H  H109  1  0.96541000  0.30109000  0.36537000  1
  H  H110  1  0.93409000  0.18737000  0.33256000  1
  H  H111  1  0.05465000  0.20635000  0.37164000  1
  H  H112  1  0.98805000  0.33258000  0.49550000  1
  H  H113  1  0.07433000  0.23597000  0.50256000  1
  H  H114  1  0.96768000  0.24292000  0.56055000  1
  H  H115  1  0.57468000  0.04443000  0.57492000  1
  H  H116  1  0.66041000  0.95438000  0.60048000  1
  H  H117  1  0.54135000  0.96501000  0.64491000  1
  H  H118  1  0.54970000  0.90116000  0.41874000  1
  H  H119  1  0.62921000  0.98475000  0.46043000  1
  H  H120  1  0.75692000  0.87070000  0.47862000  1
  H  H121  1  0.68478000  0.79589000  0.42251000  1
  H  H122  1  0.70306000  0.79932000  0.58413000  1
  H  H123  1  0.53092000  0.70260000  0.64419000  1
  H  H124  1  0.44558000  0.80084000  0.64824000  1
  H  H125  1  0.57567000  0.81544000  0.66961000  1
  H  H126  1  0.47909000  0.66773000  0.52011000  1
  H  H127  1  0.49280000  0.75157000  0.45009000  1
  H  H128  1  0.39601000  0.76676000  0.51540000  1
  H  H129  1  0.13920000  0.96787000  0.19000000  1
  H  H130  1  0.10860000  0.02678000  0.27253000  1
  H  H131  1  0.15984000  0.91151000  0.27483000  1
  C  C132  1  0.29089000  0.17458000  0.52873000  1
  C  C133  1  0.55146000  0.44004000  0.51857000  1
  C  C134  1  0.25822000  0.31321000  0.60939000  1
  C  C135  1  0.31753000  0.27946000  0.54352000  1
  C  C136  1  0.28991000  0.34125000  0.47804000  1
  C  C137  1  0.36488000  0.42470000  0.47701000  1
  C  C138  1  0.44338000  0.40585000  0.53654000  1
  C  C139  1  0.43487000  0.29785000  0.55227000  1
  C  C140  1  0.47504000  0.27336000  0.62620000  1
  C  C141  1  0.49339000  0.24391000  0.49502000  1
  C  C142  1  0.92310000  0.56073000  0.47764000  1
  C  C143  1  0.18312000  0.82758000  0.47630000  1
  C  C144  1  0.07938000  0.52846000  0.40887000  1
  C  C145  1  0.03506000  0.59211000  0.46766000  1
  C  C146  1  0.09912000  0.58464000  0.53644000  1
  C  C147  1  0.18253000  0.66026000  0.53102000  1
  C  C148  1  0.15671000  0.72313000  0.46627000  1
  C  C149  1  0.04410000  0.69970000  0.44671000  1
  C  C150  1  0.02338000  0.72033000  0.36767000  1
  C  C151  1  0.97268000  0.75693000  0.49361000  1
  C  C152  1  0.76420000  0.48388000  0.74237000  1
  C  C153  1  0.65952000  0.52230000  0.75298000  1
  C  C154  1  0.20692000  0.82669000  0.02753000  1
  C  C155  1  0.94833000  0.56025000  0.01847000  1
  C  C156  1  0.24198000  0.68826000  0.10698000  1
  C  C157  1  0.18244000  0.72109000  0.04077000  1
  C  C158  1  0.20950000  0.65773000  0.97640000  1
  C  C159  1  0.13478000  0.57400000  0.97669000  1
  C  C160  1  0.05659000  0.59379000  0.03623000  1
  C  C161  1  0.06543000  0.70188000  0.05108000  1
  C  C162  1  0.02615000  0.72657000  0.12536000  1
  C  C163  1  0.00563000  0.75566000  0.99460000  1
  C  C164  1  0.57660000  0.43921000  0.97716000  1
  C  C165  1  0.31712000  0.17237000  0.97474000  1
  C  C166  1  0.42065000  0.47171000  0.90895000  1
  C  C167  1  0.46485000  0.40725000  0.96711000  1
  C  C168  1  0.40041000  0.41399000  0.03575000  1
  C  C169  1  0.31622000  0.33898000  0.02913000  1
  C  C170  1  0.34154000  0.27716000  0.96331000  1
  C  C171  1  0.45495000  0.29987000  0.94550000  1
  C  C172  1  0.47750000  0.27976000  0.86680000  1
  C  C173  1  0.52564000  0.24285000  0.99314000  1
  C  C174  1  0.73575000  0.51567000  0.24248000  1
  C  C175  1  0.84076000  0.47750000  0.25272000  1
  C  C176  1  0.70768000  0.67343000  0.97129000  1
  C  C177  1  0.44796000  0.93902000  0.98069000  1
  C  C178  1  0.74198000  0.81161000  0.89311000  1
  C  C179  1  0.68199000  0.77910000  0.95914000  1
  C  C180  1  0.70968000  0.84214000  0.02358000  1
  C  C181  1  0.63507000  0.92595000  0.02343000  1
  C  C182  1  0.55659000  0.90636000  0.96396000  1
  C  C183  1  0.56492000  0.79835000  0.94894000  1
  C  C184  1  0.52619000  0.77323000  0.87455000  1
  C  C185  1  0.50564000  0.74420000  0.00545000  1
  C  C186  1  0.07687000  0.06124000  0.02223000  1
  C  C187  1  0.81701000  0.32760000  0.02391000  1
  C  C188  1  0.92053000  0.02824000  0.09101000  1
  C  C189  1  0.96493000  0.09250000  0.03273000  1
  C  C190  1  0.90033000  0.08623000  0.96415000  1
  C  C191  1  0.81620000  0.16130000  0.97083000  1
  C  C192  1  0.84177000  0.22293000  0.03668000  1
  C  C193  1  0.95520000  0.19988000  0.05441000  1
  C  C194  1  0.97732000  0.22018000  0.13310000  1
  C  C195  1  0.02573000  0.25716000  0.00677000  1
  C  C196  1  0.23645000  0.98495000  0.75198000  1
  C  C197  1  0.34236000  0.02316000  0.74604000  1
  C  C198  1  0.79201000  0.32624000  0.47194000  1
  C  C199  1  0.05273000  0.05921000  0.48298000  1
  C  C200  1  0.75849000  0.18791000  0.39297000  1
  C  C201  1  0.81770000  0.22035000  0.45955000  1
  C  C202  1  0.78909000  0.15781000  0.52409000  1
  C  C203  1  0.86390000  0.07435000  0.52565000  1
  C  C204  1  0.94413000  0.09363000  0.46767000  1
  C  C205  1  0.93512000  0.20147000  0.45023000  1
  C  C206  1  0.97409000  0.22529000  0.37544000  1
  C  C207  1  0.99447000  0.25688000  0.50590000  1
  C  C208  1  0.42355000  0.93999000  0.52334000  1
  C  C209  1  0.68305000  0.67263000  0.52513000  1
  C  C210  1  0.57977000  0.97104000  0.59298000  1
  C  C211  1  0.53452000  0.90633000  0.53545000  1
  C  C212  1  0.59762000  0.91371000  0.46585000  1
  C  C213  1  0.68199000  0.83872000  0.47135000  1
  C  C214  1  0.65782000  0.77715000  0.53754000  1
  C  C215  1  0.54441000  0.79919000  0.55581000  1
  C  C216  1  0.52258000  0.77827000  0.63421000  1
  C  C217  1  0.47423000  0.74285000  0.50713000  1
  C  C218  1  0.26722000  0.01799000  0.25209000  1
  C  C219  1  0.16220000  0.97879000  0.24588000  1
  O  O220  1  0.26959000  0.12307000  0.58350000  1
  O  O221  1  0.28878000  0.14531000  0.46432000  1
  O  O222  1  0.57716000  0.45612000  0.45447000  1
  O  O223  1  0.61039000  0.45302000  0.57365000  1
  O  O224  1  0.89489000  0.53309000  0.54057000  1
  O  O225  1  0.86640000  0.56021000  0.42263000  1
  O  O226  1  0.21333000  0.87250000  0.42115000  1
  O  O227  1  0.17755000  0.86305000  0.53955000  1
  O  O228  1  0.79534000  0.46721000  0.67884000  1
  O  O229  1  0.81957000  0.46614000  0.79726000  1
  O  O230  1  0.22275000  0.87745000  0.08264000  1
  O  O231  1  0.21223000  0.85694000  0.96247000  1
  O  O232  1  0.92243000  0.54561000  0.95416000  1
  O  O233  1  0.88935000  0.54706000  0.07342000  1
  O  O234  1  0.60446000  0.46698000  0.04014000  1
  O  O235  1  0.63401000  0.43894000  0.92256000  1
  O  O236  1  0.28285000  0.12562000  0.92033000  1
  O  O237  1  0.32794000  0.13858000  0.03733000  1
  O  O238  1  0.70501000  0.53042000  0.17853000  1
  O  O239  1  0.68116000  0.53471000  0.29776000  1
  O  O240  1  0.72348000  0.62255000  0.91649000  1
  O  O241  1  0.71104000  0.64227000  0.03636000  1
  O  O242  1  0.42332000  0.95411000  0.04534000  1
  O  O243  1  0.38954000  0.95308000  0.92566000  1
  O  O244  1  0.10477000  0.03264000  0.95964000  1
  O  O245  1  0.13339000  0.06162000  0.07746000  1
  O  O246  1  0.78335000  0.37496000  0.07838000  1
  O  O247  1  0.82832000  0.36204000  0.96174000  1
  O  O248  1  0.20036000  0.96690000  0.81461000  1
  O  O249  1  0.18685000  0.96717000  0.69440000  1
  O  O250  1  0.77439000  0.37685000  0.41731000  1
  O  O251  1  0.78862000  0.35738000  0.53699000  1
  O  O252  1  0.08073000  0.04205000  0.54750000  1
  O  O253  1  0.10810000  0.04665000  0.42744000  1
  O  O254  1  0.39772000  0.96728000  0.46108000  1
  O  O255  1  0.36495000  0.94252000  0.57859000  1
  O  O256  1  0.71663000  0.62560000  0.57969000  1
  O  O257  1  0.67362000  0.63777000  0.46296000  1
  O  O258  1  0.30175000  0.03705000  0.31450000  1
  O  O259  1  0.31792000  0.03334000  0.19485000  1
