# generated using pymatgen
data_H8C9N2
_symmetry_space_group_name_H-M   'P 1'
_cell_length_a   16.36960000
_cell_length_b   16.36960000
_cell_length_c   23.70940000
_cell_angle_alpha   90.00000000
_cell_angle_beta   90.00000000
_cell_angle_gamma   90.00000000
_symmetry_Int_Tables_number   1
_chemical_formula_structural   H8C9N2
_chemical_formula_sum   'H128 C144 N32'
_cell_volume   6353.26101835
_cell_formula_units_Z   16
loop_
 _symmetry_equiv_pos_site_id
 _symmetry_equiv_pos_as_xyz
  1  'x, y, z'
loop_
 _atom_site_type_symbol
 _atom_site_label
 _atom_site_symmetry_multiplicity
 _atom_site_fract_x
 _atom_site_fract_y
 _atom_site_fract_z
 _atom_site_occupancy
  C  1  1  0.22698500  0.21473000  0.21196700  1
  C  2  1  0.24029600  0.25098000  0.15123100  1
  C  3  1  0.30068800  0.15528600  0.22502400  1
  C  4  1  0.30286400  0.09023400  0.18225300  1
  C  7  1  0.32026900  0.12366200  0.12575300  1
  C  8  1  0.24755000  0.18082800  0.10675500  1
  C  13  1  0.16634900  0.12904100  0.10894900  1
  C  14  1  0.15345500  0.08662700  0.16851900  1
  C  17  1  0.23256400  0.03304300  0.18403300  1
  C  20  1  0.14623400  0.16158400  0.21127000  1
  C  23  1  0.76663000  0.78118100  0.21160800  1
  C  24  1  0.74408200  0.74763100  0.15130700  1
  C  25  1  0.69853100  0.84450300  0.22902400  1
  C  26  1  0.69524800  0.90941000  0.18640500  1
  C  29  1  0.66942600  0.88005100  0.13073000  1
  C  30  1  0.73624800  0.81938000  0.10760900  1
  C  35  1  0.82063300  0.86532200  0.10665300  1
  C  36  1  0.84287800  0.90553100  0.16581200  1
  C  39  1  0.76800200  0.96390100  0.18496100  1
  C  42  1  0.85004700  0.82990900  0.20752200  1
  C  45  1  0.27507500  0.72133300  0.72579200  1
  C  46  1  0.23079700  0.72983000  0.66721400  1
  C  47  1  0.33477600  0.79676800  0.73215300  1
  C  48  1  0.39322800  0.79765400  0.68459400  1
  C  51  1  0.35119800  0.81011000  0.63027000  1
  C  52  1  0.29377300  0.73449700  0.61777200  1
  C  57  1  0.34701500  0.65450500  0.61935000  1
  C  58  1  0.39839500  0.64732400  0.67605200  1
  C  61  1  0.45224500  0.72845300  0.68494000  1
  C  64  1  0.33020000  0.64177400  0.72412200  1
  C  67  1  0.71819600  0.27325000  0.72524800  1
  C  68  1  0.76265900  0.25917500  0.66720200  1
  C  69  1  0.65532600  0.20099200  0.73334200  1
  C  70  1  0.59777700  0.19993600  0.68529800  1
  C  73  1  0.63920800  0.18187100  0.63164800  1
  C  74  1  0.70012600  0.25374200  0.61741400  1
  C  79  1  0.65020700  0.33559700  0.61671800  1
  C  80  1  0.59896700  0.34957300  0.67298600  1
  C  83  1  0.54109800  0.27111700  0.68343400  1
  C  86  1  0.66665433  0.35503900  0.72107800  1
  C  89  1  0.26984100  0.71570000  0.28438100  1
  C  90  1  0.24663800  0.75069200  0.34402900  1
  C  91  1  0.20067100  0.65381400  0.26615500  1
  C  92  1  0.19479100  0.58868700  0.30850200  1
  C  95  1  0.16768100  0.62041100  0.36356100  1
  C  96  1  0.23525600  0.67972800  0.38769000  1
  C  101  1  0.31745200  0.63033200  0.39050800  1
  C  102  1  0.34127600  0.58961600  0.33184100  1
  C  105  1  0.26661300  0.53322800  0.31103300  1
  C  108  1  0.35205400  0.66561700  0.29051700  1
  C  111  1  0.72361400  0.28156200  0.28386100  1
  C  112  1  0.74510900  0.24478700  0.34330800  1
  C  113  1  0.79327400  0.34404400  0.26754400  1
  C  114  1  0.79794700  0.40756400  0.31105700  1
  C  117  1  0.82274300  0.37491900  0.36636100  1
  C  118  1  0.75476700  0.31425800  0.38814900  1
  C  123  1  0.67278900  0.36399500  0.39039000  1
  C  124  1  0.65062600  0.40627600  0.33199500  1
  C  127  1  0.72587800  0.46316900  0.31275800  1
  C  130  1  0.64104700  0.33131300  0.28957300  1
  C  133  1  0.21863700  0.22315500  0.76899400  1
  C  134  1  0.26105500  0.23851500  0.82766000  1
  C  135  1  0.15547000  0.29470300  0.75924800  1
  C  136  1  0.09656300  0.29649200  0.80648200  1
  C  139  1  0.13620700  0.31634700  0.86038900  1
  C  140  1  0.19670900  0.24501500  0.87641200  1
  C  145  1  0.14810200  0.16228100  0.87696400  1
  C  146  1  0.09845500  0.14698400  0.82020800  1
  C  149  1  0.04035900  0.22496300  0.80873000  1
  C  152  1  0.16724900  0.14126100  0.77296000  1
  C  155  1  0.77510000  0.77409800  0.76918900  1
  C  156  1  0.73100600  0.76673100  0.82791600  1
  C  157  1  0.83447200  0.69831200  0.76333900  1
  C  158  1  0.89313300  0.69796300  0.81079200  1
  C  161  1  0.85123200  0.68663700  0.86529000  1
  C  162  1  0.79420900  0.76273600  0.87724800  1
  C  167  1  0.84777100  0.84247200  0.87490200  1
  C  168  1  0.89896100  0.84846200  0.81808600  1
  C  171  1  0.95239800  0.76694200  0.80981400  1
  C  174  1  0.83061800  0.85342800  0.77008800  1
  C  177  1  0.23331600  0.25565400  0.93417800  1
  C  178  1  0.30491000  0.21427900  0.95185000  1
  C  179  1  0.31649900  0.19539300  0.00902200  1
  C  180  1  0.25568000  0.21652900  0.04866100  1
  C  185  1  0.75315700  0.75962300  0.93394800  1
  C  186  1  0.69310400  0.81714800  0.95040400  1
  C  187  1  0.67684200  0.83058100  0.00768500  1
  C  188  1  0.72147000  0.78734800  0.04902200  1
  C  193  1  0.22009000  0.71293600  0.44589000  1
  C  194  1  0.17422200  0.67070200  0.48709000  1
  C  195  1  0.19093900  0.68301500  0.54445100  1
  C  196  1  0.25230100  0.73891100  0.56123800  1
  C  201  1  0.76763800  0.27809800  0.44576000  1
  C  202  1  0.82165000  0.31042700  0.48639000  1
  C  203  1  0.80758100  0.29469700  0.54374600  1
  C  204  1  0.74096400  0.24511700  0.56084400  1
  C  209  1  0.92550700  0.94870500  0.16371600  1
  C  210  1  0.98714500  0.93405300  0.12293400  1
  C  211  1  0.06147900  0.97648500  0.12482800  1
  C  212  1  0.07571600  0.03599800  0.16686700  1
  C  217  1  0.55089600  0.42923300  0.67105000  1
  C  218  1  0.55292100  0.48599700  0.62598400  1
  C  219  1  0.50487400  0.55667000  0.62754400  1
  C  220  1  0.45166400  0.57153300  0.67338000  1
  C  225  1  0.57046900  0.45326600  0.33587200  1
  C  226  1  0.53128100  0.47415600  0.38710000  1
  C  227  1  0.45784100  0.51770200  0.38705400  1
  C  228  1  0.42124900  0.54243600  0.33577900  1
  C  233  1  0.95243500  0.92415100  0.82020200  1
  C  234  1  0.00597800  0.93927300  0.86581800  1
  C  235  1  0.05375800  0.01012000  0.86715400  1
  C  236  1  0.05097600  0.06695800  0.82215600  1
  C  241  1  0.25318600  0.94652400  0.20095500  1
  C  242  1  0.33122200  0.92052200  0.21997700  1
  C  243  1  0.34116800  0.84192800  0.24279100  1
  C  244  1  0.27419500  0.78744000  0.24500900  1
  C  249  1  0.74511800  0.05056100  0.20145700  1
  C  250  1  0.66669433  0.07571900  0.22066100  1
  C  251  1  0.65487100  0.15466300  0.24230600  1
  C  252  1  0.72056000  0.21059100  0.24371400  1
  C  257  1  0.54158800  0.74952800  0.69369200  1
  C  258  1  0.57158200  0.82966500  0.70326600  1
  C  259  1  0.65333800  0.84171100  0.71970200  1
  C  260  1  0.70675700  0.77423900  0.72636200  1
  C  265  1  0.45190200  0.24855000  0.69227800  1
  C  266  1  0.42349000  0.16853600  0.70455200  1
  C  267  1  0.34233400  0.15578300  0.72187800  1
  C  268  1  0.28740900  0.22229500  0.72650600  1
  C  273  1  0.24666300  0.44645400  0.29392700  1
  C  274  1  0.16833600  0.41973900  0.27590700  1
  C  275  1  0.15784100  0.34068400  0.25428900  1
  C  276  1  0.22483600  0.28635600  0.25155400  1
  C  281  1  0.74637900  0.54970000  0.29504800  1
  C  282  1  0.82439300  0.57521000  0.27557000  1
  C  283  1  0.83503400  0.65352400  0.25270200  1
  C  284  1  0.76868600  0.70867500  0.25056700  1
  C  289  1  0.95102700  0.24716900  0.80054400  1
  C  290  1  0.92183500  0.32745900  0.79017800  1
  C  291  1  0.84016300  0.34036800  0.77419600  1
  C  292  1  0.78574800  0.27359200  0.76861100  1
  C  297  1  0.04169000  0.74563700  0.80120600  1
  C  298  1  0.07158300  0.66548200  0.79157200  1
  C  299  1  0.15336300  0.65339600  0.77518200  1
  C  300  1  0.20689300  0.72083200  0.76872800  1
  H  5  1  0.29434400  0.12916400  0.26728700  1
  H  6  1  0.35920100  0.18766900  0.22472200  1
  H  9  1  0.37787600  0.15765500  0.12624700  1
  H  10  1  0.32865000  0.07331700  0.09596200  1
  H  11  1  0.29599800  0.28813600  0.15004200  1
  H  12  1  0.18932000  0.29139100  0.14033800  1
  H  15  1  0.16977600  0.08352000  0.07528600  1
  H  16  1  0.11309900  0.16721200  0.09942900  1
  H  18  1  0.23053000  0.00034000  0.14371200  1
  H  19  1  0.21151800  0.02857000  0.22791000  1
  H  21  1  0.09358800  0.19879200  0.19925000  1
  H  22  1  0.13422800  0.13962400  0.25408000  1
  H  27  1  0.71132300  0.86994000  0.27078800  1
  H  28  1  0.63835000  0.81564500  0.23181200  1
  H  31  1  0.61006000  0.84954300  0.13347500  1
  H  32  1  0.66118200  0.93280100  0.10308300  1
  H  33  1  0.68616400  0.71409700  0.15271600  1
  H  34  1  0.79102600  0.70417000  0.13776800  1
  H  37  1  0.81978700  0.91261700  0.07393700  1
  H  38  1  0.86755800  0.82114300  0.09450300  1
  H  40  1  0.77255900  0.99655900  0.14468200  1
  H  41  1  0.79445900  0.96847700  0.22734500  1
  H  43  1  0.89919900  0.79014300  0.19268900  1
  H  44  1  0.86763400  0.85058500  0.24972000  1
  H  49  1  0.36697100  0.79380300  0.77254400  1
  H  50  1  0.30122700  0.85459500  0.73240800  1
  H  53  1  0.31555300  0.86669100  0.63112600  1
  H  54  1  0.39671500  0.81796000  0.59692000  1
  H  55  1  0.19245300  0.78473100  0.66615800  1
  H  56  1  0.19016300  0.67749900  0.66173400  1
  H  59  1  0.38720900  0.65595300  0.58256600  1
  H  60  1  0.30842500  0.60028200  0.61434800  1
  H  62  1  0.47864800  0.72456100  0.64252600  1
  H  63  1  0.46352900  0.71242900  0.72922200  1
  H  65  1  0.29291300  0.58743900  0.71670800  1
  H  66  1  0.35863100  0.63363100  0.76551400  1
  H  71  1  0.62258300  0.20787900  0.77329200  1
  H  72  1  0.68638400  0.14187800  0.73556000  1
  H  75  1  0.67214100  0.12379600  0.63432600  1
  H  76  1  0.59335900  0.17423700  0.59849700  1
  H  77  1  0.79885100  0.20283900  0.66795900  1
  H  78  1  0.80528400  0.30960300  0.66065000  1
  H  81  1  0.60870000  0.33478800  0.58044600  1
  H  82  1  0.69258100  0.38656800  0.61019000  1
  H  84  1  0.51495300  0.27734200  0.64103300  1
  H  85  1  0.52952200  0.29123400  0.72682800  1
  H  87  1  0.70614300  0.40727700  0.71212800  1
  H  88  1  0.63829200  0.36703700  0.76205200  1
  H  93  1  0.21408300  0.62821200  0.22452900  1
  H  94  1  0.14113100  0.68379700  0.26250700  1
  H  97  1  0.10924900  0.65242200  0.35961800  1
  H  98  1  0.15689900  0.56843100  0.39147800  1
  H  99  1  0.18981900  0.78596200  0.34171800  1
  H  100  1  0.29458600  0.79273000  0.35804800  1
  H  103  1  0.30923700  0.58318300  0.42275600  1
  H  104  1  0.36765100  0.66961200  0.40470400  1
  H  106  1  0.26734800  0.50004600  0.35124500  1
  H  107  1  0.29404200  0.52921800  0.26888500  1
  H  109  1  0.40121000  0.70447500  0.30651200  1
  H  110  1  0.37100900  0.64516100  0.24856400  1
  H  115  1  0.78124600  0.37090600  0.22609600  1
  H  116  1  0.85290900  0.31413400  0.26444800  1
  H  119  1  0.88152900  0.34343200  0.36302100  1
  H  120  1  0.83178400  0.42577000  0.39561200  1
  H  121  1  0.80216200  0.20983900  0.34129900  1
  H  122  1  0.69696800  0.20216500  0.35613000  1
  H  125  1  0.68022900  0.41024500  0.42336400  1
  H  126  1  0.62196600  0.32456900  0.40325900  1
  H  128  1  0.72381000  0.49613900  0.35303400  1
  H  129  1  0.69912700  0.46753000  0.27042900  1
  H  131  1  0.59152100  0.29200800  0.30444000  1
  H  132  1  0.62310800  0.35283400  0.24766300  1
  H  137  1  0.12384500  0.28661600  0.71897600  1
  H  138  1  0.18621000  0.35395900  0.75674600  1
  H  141  1  0.16914700  0.37438800  0.85739000  1
  H  142  1  0.08923800  0.32496100  0.89265900  1
  H  143  1  0.29734200  0.29477500  0.82687400  1
  H  144  1  0.30324300  0.18804900  0.83547000  1
  H  147  1  0.10543600  0.16244100  0.91258400  1
  H  148  1  0.19125000  0.11221100  0.88439000  1
  H  150  1  0.01396800  0.21909800  0.85107200  1
  H  151  1  0.02907100  0.20437800  0.76539300  1
  H  153  1  0.20672900  0.08928000  0.78263000  1
  H  154  1  0.13986800  0.12870000  0.73175200  1
  H  159  1  0.86652600  0.70045600  0.72286600  1
  H  160  1  0.80065700  0.64063800  0.76360200  1
  H  163  1  0.81532100  0.63021000  0.86495600  1
  H  164  1  0.89679800  0.67915400  0.89864800  1
  H  165  1  0.69252300  0.71195300  0.82946800  1
  H  166  1  0.69051300  0.81923400  0.83310000  1
  H  169  1  0.88808100  0.84151900  0.91163400  1
  H  170  1  0.80946900  0.89697200  0.87947400  1
  H  172  1  0.97883700  0.77125200  0.85218600  1
  H  173  1  0.96369700  0.78209200  0.76537600  1
  H  175  1  0.79359800  0.90806000  0.77709300  1
  H  176  1  0.85896600  0.86071900  0.72859800  1
  H  182  1  0.36544900  0.16012500  0.01985700  1
  H  183  1  0.34544200  0.19040700  0.92371800  1
  H  190  1  0.63887800  0.87763200  0.01796800  1
  H  191  1  0.66709800  0.85608600  0.92201400  1
  H  198  1  0.16392500  0.64452000  0.57266400  1
  H  199  1  0.13532100  0.62451000  0.47660400  1
  H  206  1  0.84117700  0.32712800  0.57216200  1
  H  207  1  0.86519400  0.35238200  0.47594800  1
  H  214  1  0.10446100  0.96352200  0.09491700  1
  H  215  1  0.98021500  0.89252500  0.09135300  1
  H  222  1  0.50993100  0.59689200  0.59482800  1
  H  223  1  0.58916300  0.47810300  0.59147400  1
  H  230  1  0.43267000  0.53023600  0.42535400  1
  H  231  1  0.55445300  0.45867800  0.42549000  1
  H  238  1  0.09028800  0.01813600  0.90150400  1
  H  239  1  0.01141600  0.89913500  0.89855600  1
  H  246  1  0.39587000  0.82758100  0.26087700  1
  H  247  1  0.37957500  0.95994600  0.22130500  1
  H  254  1  0.60011500  0.16796600  0.26070700  1
  H  255  1  0.61889300  0.03578500  0.22289600  1
  H  262  1  0.67016800  0.89877400  0.73254100  1
  H  263  1  0.53309600  0.87881100  0.70267100  1
  H  270  1  0.32706700  0.09918300  0.73645200  1
  H  271  1  0.46267400  0.11998300  0.70553000  1
  H  278  1  0.10272500  0.32612100  0.23689300  1
  H  279  1  0.11946200  0.45851300  0.27494100  1
  H  286  1  0.88992300  0.66704900  0.23462900  1
  H  287  1  0.87280600  0.53588100  0.27425900  1
  H  294  1  0.82421900  0.39741900  0.76085800  1
  H  295  1  0.96061100  0.37635900  0.78986400  1
  H  302  1  0.17015500  0.59637000  0.76224200  1
  H  303  1  0.03298600  0.61641900  0.79200600  1
  N  181  1  0.19151800  0.26084700  0.02884600  1
  N  184  1  0.18085800  0.27823900  0.97578200  1
  N  189  1  0.77532600  0.73056000  0.02952900  1
  N  192  1  0.79005200  0.71757300  0.97625800  1
  N  197  1  0.29041500  0.78021900  0.51909400  1
  N  200  1  0.27544100  0.76799500  0.46578200  1
  N  205  1  0.69557200  0.21240400  0.51852600  1
  N  208  1  0.70818700  0.22729100  0.46529000  1
  N  213  1  0.01509900  0.04464700  0.20582700  1
  N  216  1  0.94619100  0.00367600  0.20450500  1
  N  221  1  0.45437100  0.51541100  0.71581800  1
  N  224  1  0.50058500  0.44981800  0.71470000  1
  N  229  1  0.46235400  0.51991200  0.28815700  1
  N  232  1  0.53150200  0.47905000  0.28819800  1
  N  237  1  0.00050700  0.04605400  0.77866200  1
  N  240  1  0.95457600  0.98024200  0.77773000  1
  N  245  1  0.20221400  0.81653100  0.22460700  1
  N  248  1  0.19228200  0.88931500  0.20377200  1
  N  253  1  0.79292000  0.18295300  0.22301400  1
  N  256  1  0.80416600  0.10984200  0.20292500  1
  N  261  1  0.67398000  0.70004600  0.71368800  1
  N  264  1  0.59859000  0.68848200  0.69788000  1
  N  269  1  0.31824600  0.29625400  0.71107000  1
  N  272  1  0.39330700  0.30836200  0.69450200  1
  N  277  1  0.29725000  0.31574700  0.27112900  1
  N  280  1  0.30751300  0.38901900  0.29138700  1
  N  285  1  0.69647600  0.68055600  0.27136500  1
  N  288  1  0.68606300  0.60775800  0.29250900  1
  N  293  1  0.81734900  0.19930300  0.78247000  1
  N  296  1  0.89279400  0.18706600  0.79803000  1
  N  301  1  0.17416800  0.79501200  0.78147100  1
  N  304  1  0.09876000  0.80661300  0.79714800  1
