# generated using pymatgen
data_FeH28C22(SN5)2
_symmetry_space_group_name_H-M   'P 1'
_cell_length_a   11.05206000
_cell_length_b   14.95796000
_cell_length_c   14.96065000
_cell_angle_alpha   114.15267000
_cell_angle_beta   104.26239000
_cell_angle_gamma   104.24112000
_symmetry_Int_Tables_number   1
_chemical_formula_structural   FeH28C22(SN5)2
_chemical_formula_sum   'Fe3 H84 C66 S6 N30'
_cell_volume   2011.96414721
_cell_formula_units_Z   3
loop_
 _symmetry_equiv_pos_site_id
 _symmetry_equiv_pos_as_xyz
  1  'x, y, z'
loop_
 _atom_site_type_symbol
 _atom_site_label
 _atom_site_symmetry_multiplicity
 _atom_site_fract_x
 _atom_site_fract_y
 _atom_site_fract_z
 _atom_site_occupancy
  Fe  Fe1  1  0.00021000  0.49995000  0.00021000  1.0
  Fe  Fe2  1  0.99958000  0.99976000  0.49972000  1.0
  Fe  Fe3  1  0.49998000  0.49984000  0.50005000  1.0
  H  H1  1  0.21861000  0.44680000  0.11358000  1.0
  H  H2  1  0.23350000  0.74294000  0.05745000  1.0
  H  H3  1  0.30791000  0.68405000  0.96939000  1.0
  H  H4  1  0.41361000  0.79544000  0.09879000  1.0
  H  H5  1  0.47777000  0.44909000  0.19261000  1.0
  H  H6  1  0.47109000  0.53982000  0.31059000  1.0
  H  H7  1  0.60420000  0.58101000  0.27164000  1.0
  H  H8  1  0.73625000  0.73137000  0.02909000  1.0
  H  H9  1  0.57973000  0.74671000  0.01057000  1.0
  H  H10  1  0.58846000  0.62720000  0.00283000  1.0
  H  H11  1  0.72625000  0.86587000  0.48980000  1.0
  H  H12  1  0.60425000  0.73229000  0.41168000  1.0
  H  H13  1  0.55716000  0.83683000  0.41217000  1.0
  H  H14  1  0.88409000  0.86069000  0.22617000  1.0
  H  H15  1  0.78128000  0.55308000  0.88626000  1.0
  H  H16  1  0.76652000  0.25720000  0.94285000  1.0
  H  H17  1  0.69208000  0.31622000  0.03082000  1.0
  H  H18  1  0.58646000  0.20465000  0.90167000  1.0
  H  H19  1  0.52111000  0.55065000  0.80749000  1.0
  H  H20  1  0.52958000  0.46083000  0.68991000  1.0
  H  H21  1  0.39561000  0.41844000  0.72758000  1.0
  H  H22  1  0.26377000  0.26850000  0.97089000  1.0
  H  H23  1  0.42043000  0.25331000  0.98923000  1.0
  H  H24  1  0.41144000  0.37285000  0.99719000  1.0
  H  H25  1  0.27387000  0.13398000  0.51018000  1.0
  H  H26  1  0.39602000  0.26747000  0.58814000  1.0
  H  H27  1  0.44286000  0.16292000  0.58781000  1.0
  H  H28  1  0.11599000  0.13965000  0.77405000  1.0
  H  H29  1  0.10512000  0.88689000  0.33351000  1.0
  H  H30  1  0.17640000  0.94303000  0.68572000  1.0
  H  H31  1  0.33907000  0.03059000  0.71485000  1.0
  H  H32  1  0.31467000  0.90118000  0.69667000  1.0
  H  H33  1  0.28451000  0.80709000  0.25601000  1.0
  H  H34  1  0.15963000  0.68952000  0.22914000  1.0
  H  H35  1  0.33170000  0.72782000  0.30866000  1.0
  H  H36  1  0.70683000  0.97088000  0.70262000  1.0
  H  H37  1  0.56831000  0.98917000  0.73589000  1.0
  H  H38  1  0.58559000  0.99729000  0.62457000  1.0
  H  H39  1  0.23638000  0.51009000  0.37511000  1.0
  H  H40  1  0.19073000  0.58885000  0.32113000  1.0
  H  H41  1  0.14518000  0.58717000  0.42561000  1.0
  H  H42  1  0.65796000  0.77388000  0.63411000  1.0
  H  H43  1  0.89497000  0.11338000  0.66666667  1.0
  H  H44  1  0.82344000  0.05707000  0.31432000  1.0
  H  H45  1  0.66077000  0.96933000  0.28512000  1.0
  H  H46  1  0.68507000  0.09883000  0.30346000  1.0
  H  H47  1  0.71503000  0.19290000  0.74389000  1.0
  H  H48  1  0.84026000  0.31030000  0.77097000  1.0
  H  H49  1  0.66837000  0.27233000  0.69135000  1.0
  H  H50  1  0.29272000  0.02935000  0.29748000  1.0
  H  H51  1  0.43100000  0.01091000  0.26398000  1.0
  H  H52  1  0.41389000  0.00276000  0.37535000  1.0
  H  H53  1  0.76402000  0.48998000  0.62477000  1.0
  H  H54  1  0.80911000  0.41085000  0.67839000  1.0
  H  H55  1  0.85494000  0.41277000  0.57413000  1.0
  H  H56  1  0.34196000  0.22614000  0.36555000  1.0
  H  H57  1  0.77212000  0.66708000  0.55321000  1.0
  H  H58  1  0.49082000  0.31438000  0.25792000  1.0
  H  H59  1  0.62470000  0.28522000  0.31582000  1.0
  H  H60  1  0.61748000  0.30335000  0.20440000  1.0
  H  H61  1  0.02870000  0.74398000  0.55088000  1.0
  H  H62  1  0.93080000  0.77074000  0.46002000  1.0
  H  H63  1  0.02354000  0.69118000  0.41914000  1.0
  H  H64  1  0.00454000  0.29739000  0.26853000  1.0
  H  H65  1  0.83284000  0.26427000  0.25346000  1.0
  H  H66  1  0.96163000  0.37559000  0.37300000  1.0
  H  H67  1  0.86211000  0.62573000  0.13566000  1.0
  H  H68  1  0.86800000  0.67828000  0.26762000  1.0
  H  H69  1  0.71917000  0.57377000  0.15998000  1.0
  H  H70  1  0.02342000  0.36544000  0.13951000  1.0
  H  H71  1  0.22802000  0.33309000  0.44665000  1.0
  H  H72  1  0.50905000  0.68537000  0.74169000  1.0
  H  H73  1  0.37539000  0.71475000  0.68387000  1.0
  H  H74  1  0.38257000  0.69675000  0.79535000  1.0
  H  H75  1  0.97059000  0.25643000  0.44933000  1.0
  H  H76  1  0.06881000  0.22895000  0.53934000  1.0
  H  H77  1  0.97716000  0.30920000  0.58144000  1.0
  H  H78  1  0.99601000  0.70278000  0.73134000  1.0
  H  H79  1  0.16771000  0.73598000  0.74630000  1.0
  H  H80  1  0.03905000  0.62423000  0.62708000  1.0
  H  H81  1  0.13988000  0.37600000  0.86600000  1.0
  H  H82  1  0.12926000  0.32088000  0.73272000  1.0
  H  H83  1  0.28041000  0.42517000  0.83783000  1.0
  H  H84  1  0.97672000  0.63455000  0.86062000  1.0
  C  C1  1  0.98451000  0.26072000  0.91189000  1.0
  C  C2  1  0.33372000  0.64955000  0.09679000  1.0
  C  C3  1  0.45493000  0.65635000  0.16510000  1.0
  C  C4  1  0.41483000  0.56974000  0.18128000  1.0
  C  C5  1  0.32114000  0.72216000  0.05350000  1.0
  C  C6  1  0.49607000  0.53295000  0.24214000  1.0
  C  C7  1  0.67570000  0.75844000  0.16092000  1.0
  C  C8  1  0.59420000  0.73558000  0.21324000  1.0
  C  C9  1  0.67950000  0.79877000  0.32362000  1.0
  C  C10  1  0.64418000  0.71401000  0.04500000  1.0
  C  C11  1  0.64024000  0.80887000  0.41437000  1.0
  C  C12  1  0.01547000  0.73924000  0.08796000  1.0
  C  C13  1  0.66622000  0.35042000  0.90322000  1.0
  C  C14  1  0.54499000  0.34371000  0.83501000  1.0
  C  C15  1  0.58507000  0.43030000  0.81881000  1.0
  C  C16  1  0.67885000  0.27796000  0.94672000  1.0
  C  C17  1  0.50374000  0.46702000  0.75786000  1.0
  C  C18  1  0.32431000  0.24161000  0.83909000  1.0
  C  C19  1  0.40576000  0.26447000  0.78678000  1.0
  C  C20  1  0.32048000  0.20121000  0.67637000  1.0
  C  C21  1  0.35583000  0.28602000  0.95498000  1.0
  C  C22  1  0.35986000  0.19099000  0.58562000  1.0
  C  C23  1  0.07269000  0.08851000  0.34893000  1.0
  C  C24  1  0.23693000  0.90331000  0.55284000  1.0
  C  C25  1  0.28973000  0.83501000  0.49114000  1.0
  C  C26  1  0.23353000  0.81894000  0.38839000  1.0
  C  C27  1  0.26780000  0.94662000  0.66876000  1.0
  C  C28  1  0.25339000  0.75776000  0.29052000  1.0
  C  C29  1  0.51453000  0.83898000  0.59729000  1.0
  C  C30  1  0.38074000  0.78673000  0.52210000  1.0
  C  C31  1  0.35566000  0.67632000  0.47498000  1.0
  C  C32  1  0.59884000  0.95490000  0.66901000  1.0
  C  C33  1  0.22541000  0.58558000  0.39460000  1.0
  C  C34  1  0.92745000  0.91175000  0.65119000  1.0
  C  C35  1  0.76289000  0.09662000  0.44717000  1.0
  C  C36  1  0.71008000  0.16496000  0.50879000  1.0
  C  C37  1  0.76625000  0.18100000  0.61155000  1.0
  C  C38  1  0.73199000  0.05332000  0.33124000  1.0
  C  C39  1  0.74647000  0.24221000  0.70944000  1.0
  C  C40  1  0.48522000  0.16107000  0.40271000  1.0
  C  C41  1  0.61911000  0.21329000  0.47777000  1.0
  C  C42  1  0.64430000  0.32373000  0.52475000  1.0
  C  C43  1  0.40069000  0.04520000  0.33097000  1.0
  C  C44  1  0.77466000  0.41437000  0.60507000  1.0
  C  C45  1  0.72351000  0.65090000  0.73941000  1.0
  C  C46  1  0.68426000  0.44725000  0.35057000  1.0
  C  C47  1  0.79858000  0.50877000  0.34372000  1.0
  C  C48  1  0.84546000  0.61155000  0.43042000  1.0
  C  C49  1  0.59913000  0.33130000  0.27803000  1.0
  C  C50  1  0.96315000  0.70937000  0.46700000  1.0
  C  C51  1  0.91744000  0.40275000  0.24182000  1.0
  C  C52  1  0.85863000  0.47784000  0.26452000  1.0
  C  C53  1  0.88044000  0.52483000  0.20109000  1.0
  C  C54  1  0.93024000  0.33114000  0.28614000  1.0
  C  C55  1  0.83050000  0.60524000  0.19071000  1.0
  C  C56  1  0.27615000  0.34890000  0.26043000  1.0
  C  C57  1  0.31579000  0.55275000  0.64933000  1.0
  C  C58  1  0.20152000  0.49124000  0.65623000  1.0
  C  C59  1  0.15467000  0.38842000  0.56954000  1.0
  C  C60  1  0.40085000  0.66869000  0.72171000  1.0
  C  C61  1  0.03681000  0.29070000  0.53299000  1.0
  C  C62  1  0.08303000  0.59752000  0.75838000  1.0
  C  C63  1  0.14168000  0.52231000  0.73557000  1.0
  C  C64  1  0.11967000  0.47528000  0.79894000  1.0
  C  C65  1  0.07041000  0.66907000  0.71392000  1.0
  C  C66  1  0.16928000  0.39476000  0.80929000  1.0
  S  S1  1  0.95910000  0.13527000  0.85616000  1.0
  S  S2  1  0.04081000  0.86473000  0.14375000  1.0
  S  S3  1  0.10290000  0.14406000  0.27904000  1.0
  S  S4  1  0.89713000  0.85613000  0.72101000  1.0
  S  S5  1  0.82372000  0.72098000  0.86480000  1.0
  S  S6  1  0.17604000  0.27899000  0.13500000  1.0
  N  N1  1  0.00293000  0.35282000  0.95443000  1.0
  N  N2  1  0.22622000  0.56531000  0.07432000  1.0
  N  N3  1  0.27859000  0.51901000  0.12713000  1.0
  N  N4  1  0.80578000  0.85549000  0.33847000  1.0
  N  N5  1  0.79946000  0.83024000  0.23822000  1.0
  N  N6  1  0.99717000  0.64720000  0.04545000  1.0
  N  N7  1  0.77377000  0.43455000  0.92557000  1.0
  N  N8  1  0.72139000  0.48087000  0.87275000  1.0
  N  N9  1  0.19427000  0.14435000  0.66154000  1.0
  N  N10  1  0.20062000  0.16971000  0.76182000  1.0
  N  N11  1  0.04859000  0.04601000  0.39853000  1.0
  N  N12  1  0.15190000  0.92584000  0.49114000  1.0
  N  N13  1  0.15141000  0.87311000  0.39199000  1.0
  N  N14  1  0.46706000  0.66141000  0.51691000  1.0
  N  N15  1  0.56099000  0.76168000  0.59194000  1.0
  N  N16  1  0.95149000  0.95415000  0.60151000  1.0
  N  N17  1  0.84784000  0.07402000  0.50886000  1.0
  N  N18  1  0.84841000  0.12686000  0.60804000  1.0
  N  N19  1  0.53287000  0.33865000  0.48288000  1.0
  N  N20  1  0.43879000  0.23837000  0.40807000  1.0
  N  N21  1  0.64966000  0.60107000  0.64736000  1.0
  N  N22  1  0.66124000  0.50912000  0.43493000  1.0
  N  N23  1  0.76004000  0.60818000  0.48122000  1.0
  N  N24  1  0.94984000  0.48274000  0.14425000  1.0
  N  N25  1  0.96906000  0.40794000  0.16977000  1.0
  N  N26  1  0.34994000  0.39857000  0.35252000  1.0
  N  N27  1  0.33892000  0.49084000  0.56507000  1.0
  N  N28  1  0.24031000  0.39172000  0.51889000  1.0
  N  N29  1  0.05010000  0.51724000  0.85563000  1.0
  N  N30  1  0.03113000  0.59218000  0.83028000  1.0
