# generated using pymatgen
data_H9C15N4O
_symmetry_space_group_name_H-M   'P 1'
_cell_length_a   15.38440000
_cell_length_b   17.05810000
_cell_length_c   47.24390000
_cell_angle_alpha   87.67020000
_cell_angle_beta   90.00010000
_cell_angle_gamma   90.00430000
_symmetry_Int_Tables_number   1
_chemical_formula_structural   H9C15N4O
_chemical_formula_sum   'H72 C120 N32 O8'
_cell_volume   12387.90361741
_cell_formula_units_Z   8
loop_
 _symmetry_equiv_pos_site_id
 _symmetry_equiv_pos_as_xyz
  1  'x, y, z'
loop_
 _atom_site_type_symbol
 _atom_site_label
 _atom_site_symmetry_multiplicity
 _atom_site_fract_x
 _atom_site_fract_y
 _atom_site_fract_z
 _atom_site_occupancy
  C  1  1  0.67369400  0.24106700  0.87245550  1
  C  2  1  0.63952500  0.17513050  0.85823850  1
  C  3  1  0.64185950  0.17363300  0.82813275  1
  C  4  1  0.67512300  0.23924800  0.81287650  1
  C  5  1  0.70787550  0.30484500  0.82636000  1
  C  6  1  0.70995500  0.30543200  0.85629825  1
  C  7  1  0.60524250  0.11230700  0.87491975  1
  C  8  1  0.75103700  0.36613700  0.87063925  1
  C  10  1  0.67363150  0.24245850  0.90277500  1
  C  11  1  0.63197050  0.18122800  0.91900250  1
  C  12  1  0.62816250  0.18497100  0.94906950  1
  C  13  1  0.67909850  0.24155200  0.96259725  1
  C  14  1  0.72241150  0.30249550  0.94706425  1
  C  15  1  0.71614200  0.30418900  0.91696650  1
  C  16  1  0.60154600  0.11548400  0.90450075  1
  C  18  1  0.75524500  0.36484600  0.90020000  1
  C  27  1  0.66422100  0.75094050  0.62387650  1
  C  28  1  0.62946850  0.81565350  0.63863850  1
  C  29  1  0.62954200  0.81423250  0.66880275  1
  C  30  1  0.66056500  0.74678750  0.68350900  1
  C  31  1  0.69594050  0.68316450  0.66952450  1
  C  32  1  0.69983000  0.68537750  0.63956200  1
  C  33  1  0.59670450  0.88010550  0.62244150  1
  C  34  1  0.74054850  0.62545250  0.62473550  1
  C  36  1  0.66570850  0.75217650  0.59350425  1
  C  37  1  0.62534800  0.81492000  0.57766350  1
  C  38  1  0.62315400  0.81360750  0.54749200  1
  C  39  1  0.67432150  0.75765000  0.53368200  1
  C  40  1  0.71643600  0.69534700  0.54884050  1
  C  41  1  0.70847600  0.69139200  0.57889025  1
  C  42  1  0.59466300  0.87951550  0.59275925  1
  C  44  1  0.74608000  0.62910850  0.59520550  1
  C  53  1  0.14842400  0.76756750  0.12347050  1
  C  54  1  0.18611650  0.83327550  0.13691650  1
  C  55  1  0.18569900  0.83660150  0.16698325  1
  C  56  1  0.15197150  0.77248850  0.18296000  1
  C  57  1  0.11670100  0.70675150  0.17020875  1
  C  58  1  0.11149700  0.70490200  0.14033425  1
  C  59  1  0.22182850  0.89404300  0.11955425  1
  C  60  1  0.06679450  0.64473850  0.12677250  1
  C  62  1  0.14549750  0.76483350  0.09321375  1
  C  63  1  0.18843200  0.82374150  0.07622000  1
  C  64  1  0.18891000  0.81854200  0.04616575  1
  C  65  1  0.13315900  0.76394000  0.03357725  1
  C  66  1  0.08849100  0.70540000  0.04990950  1
  C  67  1  0.09879750  0.70402150  0.07986200  1
  C  68  1  0.22343200  0.88896050  0.08999275  1
  C  70  1  0.05939900  0.64491400  0.09728400  1
  C  79  1  0.15965600  0.25309200  0.37165650  1
  C  80  1  0.19718100  0.18972900  0.35682450  1
  C  81  1  0.19960600  0.19261300  0.32665025  1
  C  82  1  0.16942000  0.26064850  0.31211350  1
  C  83  1  0.13246000  0.32337750  0.32619800  1
  C  84  1  0.12495900  0.31927200  0.35608400  1
  C  85  1  0.22994800  0.12512800  0.37296350  1
  C  86  1  0.08105700  0.37750300  0.37088375  1
  C  88  1  0.15411800  0.24974050  0.40197200  1
  C  89  1  0.19432650  0.18702250  0.41787650  1
  C  90  1  0.19245600  0.18645500  0.44809300  1
  C  91  1  0.13659400  0.23941250  0.46154700  1
  C  92  1  0.09420700  0.30130850  0.44624950  1
  C  93  1  0.10742200  0.30840250  0.41646100  1
  C  94  1  0.22913600  0.12427700  0.40269375  1
  C  96  1  0.07124050  0.37167200  0.40027525  1
  C  105  1  0.78633950  0.41734350  0.75274375  1
  C  106  1  0.76786100  0.46607400  0.77576450  1
  C  107  1  0.75412450  0.54664100  0.76929875  1
  C  109  1  0.76484850  0.52553850  0.72016075  1
  C  113  1  0.81845900  0.28906900  0.73444150  1
  C  117  1  0.75560100  0.55289050  0.69213075  1
  C  119  1  0.75691100  0.43771700  0.80388400  1
  C  121  1  0.57413250  0.91407250  0.74553550  1
  C  122  1  0.57955900  0.96727000  0.72160950  1
  C  123  1  0.58321000  0.04767300  0.72788675  1
  C  125  1  0.58442450  0.01842500  0.77769450  1
  C  129  1  0.48807350  0.80031800  0.75129425  1
  C  133  1  0.59181350  0.04230200  0.80576075  1
  C  135  1  0.58436550  0.94481900  0.69306500  1
  C  137  1  0.04426700  0.59395900  0.24479700  1
  C  138  1  0.05974400  0.54582900  0.22137875  1
  C  139  1  0.07190500  0.46480150  0.22731575  1
  C  141  1  0.06556300  0.48410300  0.27663450  1
  C  145  1  0.00010700  0.71845300  0.26383600  1
  C  149  1  0.07556500  0.45518450  0.30443725  1
  C  151  1  0.06911000  0.57485950  0.19328800  1
  C  153  1  0.25798150  0.09509300  0.24950000  1
  C  154  1  0.25162600  0.04143850  0.27327850  1
  C  155  1  0.24739950  0.96122600  0.26675250  1
  C  157  1  0.24721500  0.99143500  0.21698900  1
  C  161  1  0.34085300  0.21077150  0.24201525  1
  C  165  1  0.23970500  0.96808600  0.18884150  1
  C  167  1  0.24612000  0.06313250  0.30191250  1
  C  169  1  0.86286950  0.50730900  0.97283050  1
  C  170  1  0.84522450  0.44395400  0.99244475  1
  C  171  1  0.88237600  0.45154850  0.01967850  1
  C  173  1  0.95265100  0.57207550  0.00612750  1
  C  177  1  0.74635500  0.55697950  0.94588550  1
  C  181  1  0.00670750  0.63634400  0.01180700  1
  C  183  1  0.79453450  0.37704100  0.98632075  1
  C  185  1  0.85865350  0.49173400  0.52291325  1
  C  186  1  0.84319650  0.55622500  0.50357100  1
  C  187  1  0.88386500  0.55030650  0.47679850  1
  C  189  1  0.95313700  0.42924600  0.49038650  1
  C  193  1  0.73900850  0.44001800  0.54781150  1
  C  197  1  0.00819100  0.36553950  0.48481650  1
  C  199  1  0.79162800  0.62277500  0.50952225  1
  C  201  1  0.49397700  0.98409150  0.49166525  1
  C  202  1  0.45446800  0.95136150  0.51653550  1
  C  203  1  0.36960550  0.97852200  0.52248000  1
  C  205  1  0.36638050  0.05866200  0.48031400  1
  C  209  1  0.63879100  0.02425050  0.49504650  1
  C  213  1  0.32355000  0.10963400  0.46096650  1
  C  215  1  0.49568050  0.89724750  0.53549875  1
  C  217  1  0.49567750  0.01423000  0.00360700  1
  C  218  1  0.45669400  0.04932800  0.97904850  1
  C  219  1  0.37164450  0.02350250  0.97266725  1
  C  221  1  0.36702350  0.94045700  0.01405825  1
  C  225  1  0.63969350  0.97229250  0.99970700  1
  C  229  1  0.32279100  0.88969050  0.03307775  1
  C  231  1  0.49887000  0.10420300  0.96065900  1
  H  9  1  0.67559400  0.23930850  0.79109400  1
  H  17  1  0.67776550  0.24297700  0.98422550  1
  H  19  1  0.58060750  0.06608100  0.91532375  1
  H  20  1  0.58185400  0.06335600  0.86582850  1
  H  21  1  0.78840500  0.40921150  0.90921450  1
  H  22  1  0.78354200  0.41003400  0.85996650  1
  H  35  1  0.66053350  0.74499800  0.70529500  1
  H  43  1  0.67441800  0.75799650  0.51200775  1
  H  45  1  0.57437000  0.92976950  0.58234825  1
  H  46  1  0.57290750  0.92822650  0.63200700  1
  H  47  1  0.77886200  0.58506200  0.58591575  1
  H  48  1  0.77102050  0.57994550  0.63496225  1
  H  61  1  0.15333050  0.77357200  0.20471900  1
  H  69  1  0.13175950  0.76185600  0.01196850  1
  H  71  1  0.24619500  0.93676500  0.07860850  1
  H  72  1  0.24803200  0.94262900  0.12817075  1
  H  73  1  0.02409250  0.60079900  0.08878750  1
  H  74  1  0.03336600  0.60249750  0.13800175  1
  H  87  1  0.17159700  0.26368900  0.29033900  1
  H  95  1  0.13304900  0.23747800  0.48319750  1
  H  97  1  0.25002700  0.07409700  0.41304375  1
  H  98  1  0.25620200  0.07815700  0.36332100  1
  H  99  1  0.03679800  0.41495300  0.40961700  1
  H  100  1  0.05092300  0.42323600  0.36060550  1
  H  112  1  0.73941550  0.58494400  0.78470300  1
  H  114  1  0.75836800  0.28615000  0.72222900  1
  H  115  1  0.83389750  0.23028950  0.74287825  1
  H  116  1  0.87161750  0.30907650  0.72062925  1
  H  118  1  0.76460500  0.51564050  0.67608000  1
  H  120  1  0.74537000  0.47555550  0.81965750  1
  H  128  1  0.58796900  0.09014150  0.71205425  1
  H  130  1  0.47620500  0.80639350  0.77391400  1
  H  131  1  0.49041100  0.73791000  0.74722400  1
  H  132  1  0.43424750  0.82645950  0.73912975  1
  H  134  1  0.58700150  0.00175700  0.82218350  1
  H  136  1  0.58424300  0.98685650  0.67703450  1
  H  144  1  0.08433700  0.42683300  0.21159800  1
  H  146  1  0.05171450  0.72038550  0.27966250  1
  H  147  1  0.98712400  0.77818100  0.25587800  1
  H  148  1  0.94083950  0.69480250  0.27362300  1
  H  150  1  0.06888300  0.49186500  0.32079300  1
  H  152  1  0.07915750  0.53729300  0.17732250  1
  H  160  1  0.24188900  0.91846450  0.28245500  1
  H  162  1  0.34587700  0.20706500  0.21903025  1
  H  163  1  0.33907500  0.27261800  0.24695325  1
  H  164  1  0.39834600  0.18432800  0.25206300  1
  H  166  1  0.24517800  0.00870700  0.17245475  1
  H  168  1  0.24515800  0.02070500  0.31780900  1
  H  176  1  0.87263450  0.40929200  0.03532700  1
  H  178  1  0.69722700  0.52925150  0.95970350  1
  H  179  1  0.72142200  0.55853700  0.92428225  1
  H  180  1  0.75662500  0.61742250  0.95198725  1
  H  182  1  0.01958600  0.67649500  0.99569850  1
  H  184  1  0.78207950  0.33634650  0.00230025  1
  H  192  1  0.87599400  0.59344200  0.46134750  1
  H  194  1  0.69157200  0.46835650  0.53351575  1
  H  195  1  0.71123150  0.43709400  0.56904650  1
  H  196  1  0.75053500  0.38004200  0.54139750  1
  H  198  1  0.01923900  0.32389700  0.50058200  1
  H  200  1  0.78092800  0.66438150  0.49370750  1
  H  208  1  0.33694450  0.95867550  0.54021200  1
  H  210  1  0.62598150  0.08353750  0.48639700  1
  H  211  1  0.70389100  0.00740450  0.48854575  1
  H  212  1  0.63756250  0.02436850  0.51819375  1
  H  214  1  0.35632400  0.12627500  0.44286025  1
  H  216  1  0.46331600  0.88107550  0.55374350  1
  H  224  1  0.33943600  0.04505850  0.95508650  1
  H  226  1  0.62582700  0.91256000  0.00770400  1
  H  227  1  0.70513750  0.98756500  0.00636500  1
  H  228  1  0.63834200  0.97417350  0.97653950  1
  H  230  1  0.35425350  0.87275500  0.05141450  1
  H  232  1  0.46744600  0.12137200  0.94233350  1
  N  23  1  0.73240900  0.36256550  0.80781275  1
  N  24  1  0.61888350  0.11565900  0.81076350  1
  N  25  1  0.76858350  0.35987800  0.95979550  1
  N  26  1  0.57507800  0.14045600  0.96631750  1
  N  49  1  0.72278600  0.62523400  0.68765750  1
  N  50  1  0.60827800  0.87149450  0.68669500  1
  N  51  1  0.76334550  0.63881000  0.53589725  1
  N  52  1  0.57129600  0.85947100  0.53026250  1
  N  75  1  0.09351650  0.65000250  0.18932350  1
  N  76  1  0.21082500  0.89539950  0.18367050  1
  N  77  1  0.03692800  0.65015100  0.03810000  1
  N  78  1  0.24328450  0.85893650  0.02804950  1
  N  101  1  0.10715500  0.38219000  0.30820150  1
  N  102  1  0.22194000  0.13623250  0.30851025  1
  N  103  1  0.04169300  0.35451000  0.45875550  1
  N  104  1  0.24503500  0.14266750  0.46580350  1
  N  108  1  0.75057550  0.57324850  0.74199900  1
  N  110  1  0.78405250  0.44922550  0.72591275  1
  N  124  1  0.58757850  0.07039100  0.75510450  1
  N  126  1  0.57714350  0.94117900  0.77227050  1
  N  140  1  0.07674500  0.43700600  0.25444050  1
  N  142  1  0.04828400  0.56102600  0.27144850  1
  N  156  1  0.24320200  0.93911100  0.23945650  1
  N  158  1  0.25509700  0.06848200  0.22266650  1
  N  172  1  0.93398900  0.51369650  0.02565700  1
  N  174  1  0.91583500  0.56727500  0.98010675  1
  N  188  1  0.93662750  0.48873750  0.47107450  1
  N  190  1  0.91284700  0.43234150  0.51591350  1
  N  204  1  0.32822300  0.03020400  0.50449675  1
  N  206  1  0.44857600  0.03506400  0.47446225  1
  N  220  1  0.32940600  0.97104000  0.99010650  1
  N  222  1  0.44943850  0.96260050  0.02027400  1
  O  111  1  0.80854450  0.33971950  0.75779950  1
  O  127  1  0.56995550  0.83456000  0.74287250  1
  O  143  1  0.02627500  0.67270700  0.24042350  1
  O  159  1  0.26226000  0.17450050  0.25256375  1
  O  175  1  0.82636450  0.51310650  0.94647525  1
  O  191  1  0.81868700  0.48417650  0.54868675  1
  O  207  1  0.57803600  0.96847050  0.48431475  1
  O  223  1  0.58004350  0.02795750  0.01110700  1
