# generated using pymatgen
data_Zn3H22C34(NO6)2
_symmetry_space_group_name_H-M   'P 1'
_cell_length_a   11.82107000
_cell_length_b   17.27881000
_cell_length_c   21.63313000
_cell_angle_alpha   89.99798000
_cell_angle_beta   89.91299000
_cell_angle_gamma   73.98735000
_symmetry_Int_Tables_number   1
_chemical_formula_structural   Zn3H22C34(NO6)2
_chemical_formula_sum   'Zn12 H88 C136 N8 O48'
_cell_volume   4247.20842459
_cell_formula_units_Z   4
loop_
 _symmetry_equiv_pos_site_id
 _symmetry_equiv_pos_as_xyz
  1  'x, y, z'
loop_
 _atom_site_type_symbol
 _atom_site_label
 _atom_site_symmetry_multiplicity
 _atom_site_fract_x
 _atom_site_fract_y
 _atom_site_fract_z
 _atom_site_occupancy
  Zn  Zn0  1  0.17457000  0.72826000  0.42973000  1
  Zn  Zn1  1  0.35650000  0.82711000  0.37976000  1
  Zn  Zn2  1  0.93530000  0.36552000  0.46731000  1
  Zn  Zn3  1  0.32387000  0.27193000  0.92997000  1
  Zn  Zn4  1  0.14611000  0.17044000  0.87983000  1
  Zn  Zn5  1  0.56396000  0.63440000  0.96696000  1
  Zn  Zn6  1  0.82543000  0.27174000  0.57027000  1
  Zn  Zn7  1  0.64350000  0.17289000  0.62024000  1
  Zn  Zn8  1  0.06471000  0.63448000  0.53269000  1
  Zn  Zn9  1  0.67613000  0.72806000  0.07003000  1
  Zn  Zn10  1  0.85389000  0.82956000  0.12017000  1
  Zn  Zn11  1  0.43604000  0.36560000  0.03304000  1
  H  H12  1  0.59342000  0.78877000  0.32588000  1
  H  H13  1  0.72910000  0.86252000  0.28010000  1
  H  H14  1  0.67567000  0.01323000  0.29052000  1
  H  H15  1  0.48656000  0.08389000  0.34482000  1
  H  H16  1  0.35799000  0.00086000  0.38468000  1
  H  H17  1  0.89281000  0.36145000  0.33126000  1
  H  H18  1  0.95729000  0.41845000  0.23529000  1
  H  H19  1  0.10402000  0.49908000  0.24541000  1
  H  H20  1  0.17944000  0.51932000  0.35119000  1
  H  H21  1  0.10620000  0.45732000  0.44218000  1
  H  H22  1  0.88862000  0.91814000  0.41811000  1
  H  H23  1  0.71709000  0.03820000  0.43786000  1
  H  H24  1  0.75148000  0.17266000  0.45364000  1
  H  H25  1  0.12100000  0.07056000  0.41907000  1
  H  H26  1  0.42607000  0.52562000  0.37503000  1
  H  H27  1  0.60896000  0.41212000  0.35811000  1
  H  H28  1  0.67161000  0.30521000  0.43780000  1
  H  H29  1  0.36203000  0.41475000  0.54418000  1
  H  H30  1  0.80771000  0.56581000  0.42049000  1
  H  H31  1  0.66435000  0.55112000  0.34057000  1
  H  H32  1  0.65456000  0.62477000  0.23912000  1
  H  H33  1  0.92422000  0.72873000  0.30274000  1
  H  H34  1  0.90812000  0.21115000  0.82605000  1
  H  H35  1  0.77168000  0.13796000  0.78038000  1
  H  H36  1  0.82422000  0.98727000  0.79061000  1
  H  H37  1  0.01297000  0.91595000  0.84467000  1
  H  H38  1  0.14221000  0.99840000  0.88443000  1
  H  H39  1  0.60673000  0.63859000  0.83107000  1
  H  H40  1  0.54271000  0.58149000  0.73508000  1
  H  H41  1  0.39613000  0.50075000  0.74519000  1
  H  H42  1  0.32030000  0.48052000  0.85107000  1
  H  H43  1  0.39311000  0.54263000  0.94198000  1
  H  H44  1  0.61357000  0.08160000  0.91831000  1
  H  H45  1  0.78493000  0.96140000  0.93800000  1
  H  H46  1  0.75048000  0.82695000  0.95362000  1
  H  H47  1  0.38127000  0.92910000  0.91920000  1
  H  H48  1  0.07587000  0.47390000  0.87594000  1
  H  H49  1  0.89311000  0.58708000  0.85847000  1
  H  H50  1  0.82893000  0.69442000  0.93772000  1
  H  H51  1  0.13674000  0.58570000  0.04514000  1
  H  H52  1  0.69215000  0.43442000  0.92063000  1
  H  H53  1  0.83544000  0.44835000  0.84027000  1
  H  H54  1  0.84380000  0.37454000  0.73885000  1
  H  H55  1  0.57377000  0.27154000  0.80386000  1
  H  H56  1  0.40658000  0.21123000  0.67412000  1
  H  H57  1  0.27090000  0.13747000  0.71990000  1
  H  H58  1  0.32433000  0.98677000  0.70948000  1
  H  H59  1  0.51344000  0.91611000  0.65518000  1
  H  H60  1  0.64201000  0.99913000  0.61532000  1
  H  H61  1  0.10719000  0.63854000  0.66874000  1
  H  H62  1  0.04271000  0.58154000  0.76471000  1
  H  H63  1  0.89598000  0.50091000  0.75459000  1
  H  H64  1  0.82056000  0.48068000  0.64881000  1
  H  H65  1  0.89380000  0.54267000  0.55782000  1
  H  H66  1  0.11138000  0.08186000  0.58189000  1
  H  H67  1  0.28291000  0.96179000  0.56214000  1
  H  H68  1  0.24852000  0.82734000  0.54636000  1
  H  H69  1  0.87901000  0.92943000  0.58093000  1
  H  H70  1  0.57393000  0.47438000  0.62497000  1
  H  H71  1  0.39104000  0.58787000  0.64189000  1
  H  H72  1  0.32839000  0.69479000  0.56220000  1
  H  H73  1  0.63797000  0.58525000  0.45582000  1
  H  H74  1  0.19229000  0.43418000  0.57951000  1
  H  H75  1  0.33565000  0.44887000  0.65943000  1
  H  H76  1  0.34544000  0.37522000  0.76088000  1
  H  H77  1  0.07578000  0.27127000  0.69726000  1
  H  H78  1  0.09188000  0.78884000  0.17395000  1
  H  H79  1  0.22832000  0.86204000  0.21962000  1
  H  H80  1  0.17578000  0.01273000  0.20939000  1
  H  H81  1  0.98703000  0.08405000  0.15532000  1
  H  H82  1  0.85779000  0.00160000  0.11557000  1
  H  H83  1  0.39327000  0.36140000  0.16893000  1
  H  H84  1  0.45729000  0.41851000  0.26492000  1
  H  H85  1  0.60387000  0.49925000  0.25481000  1
  H  H86  1  0.67970000  0.51947000  0.14893000  1
  H  H87  1  0.60689000  0.45736000  0.05802000  1
  H  H88  1  0.38643000  0.91840000  0.08168000  1
  H  H89  1  0.21507000  0.03860000  0.06200000  1
  H  H90  1  0.24952000  0.17305000  0.04638000  1
  H  H91  1  0.61874000  0.07089000  0.08080000  1
  H  H92  1  0.92413000  0.52610000  0.12406000  1
  H  H93  1  0.10689000  0.41291000  0.14153000  1
  H  H94  1  0.17107000  0.30558000  0.06228000  1
  H  H95  1  0.86326000  0.41429000  0.95486000  1
  H  H96  1  0.30785000  0.56558000  0.07936000  1
  H  H97  1  0.16456000  0.55164000  0.15972000  1
  H  H98  1  0.15620000  0.62545000  0.26114000  1
  H  H99  1  0.42624000  0.72845000  0.19614000  1
  C  C100  1  0.57360000  0.85406000  0.32834000  1
  C  C101  1  0.64881000  0.89559000  0.30365000  1
  C  C102  1  0.61836000  0.97932000  0.30929000  1
  C  C103  1  0.51353000  0.01877000  0.33934000  1
  C  C104  1  0.44187000  0.97341000  0.36211000  1
  C  C105  1  0.95617000  0.39667000  0.33321000  1
  C  C106  1  0.99265000  0.42838000  0.28011000  1
  C  C107  1  0.07433000  0.47293000  0.28598000  1
  C  C108  1  0.11707000  0.48395000  0.34447000  1
  C  C109  1  0.07643000  0.45018000  0.39549000  1
  C  C110  1  0.11530000  0.91295000  0.40919000  1
  C  C111  1  0.01471000  0.98687000  0.41720000  1
  C  C112  1  0.90034000  0.97818000  0.42235000  1
  C  C113  1  0.80547000  0.04523000  0.43377000  1
  C  C114  1  0.82422000  0.12097000  0.44157000  1
  C  C115  1  0.93811000  0.13025000  0.43606000  1
  C  C116  1  0.03294000  0.06307000  0.42293000  1
  C  C117  1  0.96134000  0.21013000  0.44439000  1
  C  C118  1  0.27799000  0.54764000  0.47238000  1
  C  C119  1  0.38251000  0.47725000  0.46050000  1
  C  C120  1  0.45230000  0.47595000  0.40764000  1
  C  C121  1  0.55426000  0.41306000  0.39877000  1
  C  C122  1  0.58902000  0.35199000  0.44287000  1
  C  C123  1  0.51897000  0.35250000  0.49531000  1
  C  C124  1  0.41524000  0.41467000  0.50331000  1
  C  C125  1  0.55258000  0.28963000  0.54418000  1
  C  C126  1  0.95587000  0.66141000  0.41550000  1
  C  C127  1  0.87286000  0.64924000  0.36680000  1
  C  C128  1  0.80115000  0.59810000  0.37692000  1
  C  C129  1  0.72227000  0.58908000  0.33129000  1
  C  C130  1  0.71628000  0.62968000  0.27518000  1
  C  C131  1  0.78996000  0.67976000  0.26437000  1
  C  C132  1  0.86752000  0.68969000  0.31040000  1
  C  C133  1  0.78403000  0.72297000  0.20399000  1
  C  C134  1  0.92747000  0.14587000  0.82839000  1
  C  C135  1  0.85189000  0.10466000  0.80378000  1
  C  C136  1  0.88180000  0.02093000  0.80934000  1
  C  C137  1  0.98642000  0.98108000  0.83924000  1
  C  C138  1  0.05846000  0.02609000  0.86194000  1
  C  C139  1  0.54337000  0.60337000  0.83297000  1
  C  C140  1  0.50722000  0.57155000  0.77991000  1
  C  C141  1  0.42560000  0.52693000  0.78577000  1
  C  C142  1  0.38258000  0.51594000  0.84426000  1
  C  C143  1  0.42287000  0.54984000  0.89525000  1
  C  C144  1  0.38565000  0.08593000  0.90922000  1
  C  C145  1  0.48733000  0.01273000  0.91740000  1
  C  C146  1  0.60161000  0.02160000  0.92255000  1
  C  C147  1  0.69649000  0.95448000  0.93392000  1
  C  C148  1  0.67786000  0.87868000  0.94163000  1
  C  C149  1  0.56408000  0.86929000  0.93616000  1
  C  C150  1  0.46936000  0.93644000  0.92314000  1
  C  C151  1  0.54086000  0.78940000  0.94436000  1
  C  C152  1  0.22216000  0.45257000  0.97433000  1
  C  C153  1  0.11789000  0.52277000  0.96157000  1
  C  C154  1  0.04916000  0.52374000  0.90843000  1
  C  C155  1  0.94730000  0.58655000  0.89919000  1
  C  C156  1  0.91162000  0.64787000  0.94309000  1
  C  C157  1  0.98065000  0.64770000  0.99575000  1
  C  C158  1  0.08425000  0.58561000  0.00412000  1
  C  C159  1  0.94660000  0.71076000  0.04451000  1
  C  C160  1  0.54308000  0.33994000  0.91637000  1
  C  C161  1  0.62619000  0.35119000  0.86736000  1
  C  C162  1  0.69843000  0.40202000  0.87713000  1
  C  C163  1  0.77722000  0.41058000  0.83122000  1
  C  C164  1  0.78233000  0.36991000  0.77520000  1
  C  C165  1  0.70813000  0.32011000  0.76479000  1
  C  C166  1  0.63089000  0.31039000  0.81116000  1
  C  C167  1  0.71327000  0.27716000  0.70439000  1
  C  C168  1  0.42640000  0.14594000  0.67166000  1
  C  C169  1  0.35119000  0.10440000  0.69635000  1
  C  C170  1  0.38164000  0.02068000  0.69071000  1
  C  C171  1  0.48648000  0.98123000  0.66066000  1
  C  C172  1  0.55813000  0.02658000  0.63789000  1
  C  C173  1  0.04384000  0.60333000  0.66679000  1
  C  C174  1  0.00735000  0.57162000  0.71989000  1
  C  C175  1  0.92567000  0.52706000  0.71402000  1
  C  C176  1  0.88293000  0.51604000  0.65553000  1
  C  C177  1  0.92357000  0.54982000  0.60451000  1
  C  C178  1  0.88470000  0.08705000  0.59081000  1
  C  C179  1  0.98529000  0.01313000  0.58280000  1
  C  C180  1  0.09966000  0.02182000  0.57765000  1
  C  C181  1  0.19453000  0.95477000  0.56623000  1
  C  C182  1  0.17578000  0.87903000  0.55843000  1
  C  C183  1  0.06189000  0.86975000  0.56394000  1
  C  C184  1  0.96706000  0.93692000  0.57707000  1
  C  C185  1  0.03866000  0.78986000  0.55561000  1
  C  C186  1  0.72201000  0.45236000  0.52762000  1
  C  C187  1  0.61749000  0.52275000  0.53950000  1
  C  C188  1  0.54770000  0.52405000  0.59236000  1
  C  C189  1  0.44574000  0.58694000  0.60123000  1
  C  C190  1  0.41098000  0.64801000  0.55713000  1
  C  C191  1  0.48103000  0.64750000  0.50469000  1
  C  C192  1  0.58476000  0.58533000  0.49669000  1
  C  C193  1  0.44742000  0.71037000  0.45582000  1
  C  C194  1  0.04413000  0.33858000  0.58450000  1
  C  C195  1  0.12714000  0.35076000  0.63320000  1
  C  C196  1  0.19886000  0.40190000  0.62308000  1
  C  C197  1  0.27773000  0.41092000  0.66871000  1
  C  C198  1  0.28372000  0.37031000  0.72482000  1
  C  C199  1  0.21004000  0.32024000  0.73563000  1
  C  C200  1  0.13248000  0.31031000  0.68960000  1
  C  C201  1  0.21597000  0.27702000  0.79601000  1
  C  C202  1  0.07253000  0.85413000  0.17161000  1
  C  C203  1  0.14811000  0.89533000  0.19622000  1
  C  C204  1  0.11820000  0.97907000  0.19066000  1
  C  C205  1  0.01358000  0.01892000  0.16076000  1
  C  C206  1  0.94154000  0.97391000  0.13806000  1
  C  C207  1  0.45663000  0.39663000  0.16703000  1
  C  C208  1  0.49278000  0.42845000  0.22009000  1
  C  C209  1  0.57440000  0.47307000  0.21423000  1
  C  C210  1  0.61742000  0.48406000  0.15574000  1
  C  C211  1  0.57713000  0.45016000  0.10475000  1
  C  C212  1  0.61435000  0.91407000  0.09077000  1
  C  C213  1  0.51267000  0.98727000  0.08260000  1
  C  C214  1  0.39839000  0.97840000  0.07745000  1
  C  C215  1  0.30351000  0.04551000  0.06608000  1
  C  C216  1  0.32214000  0.12132000  0.05837000  1
  C  C217  1  0.43592000  0.13070000  0.06384000  1
  C  C218  1  0.53065000  0.06356000  0.07686000  1
  C  C219  1  0.45914000  0.21060000  0.05564000  1
  C  C220  1  0.77784000  0.54743000  0.02567000  1
  C  C221  1  0.88211000  0.47723000  0.03843000  1
  C  C222  1  0.95084000  0.47626000  0.09157000  1
  C  C223  1  0.05270000  0.41345000  0.10081000  1
  C  C224  1  0.08838000  0.35213000  0.05690000  1
  C  C225  1  0.01935000  0.35229000  0.00425000  1
  C  C226  1  0.91575000  0.41438000  0.99588000  1
  C  C227  1  0.05340000  0.28924000  0.95548000  1
  C  C228  1  0.45692000  0.66006000  0.08363000  1
  C  C229  1  0.37381000  0.64880000  0.13264000  1
  C  C230  1  0.30157000  0.59798000  0.12287000  1
  C  C231  1  0.22278000  0.58942000  0.16878000  1
  C  C232  1  0.21767000  0.63009000  0.22480000  1
  C  C233  1  0.29187000  0.67988000  0.23521000  1
  C  C234  1  0.36912000  0.68960000  0.18884000  1
  C  C235  1  0.28673000  0.72283000  0.29561000  1
  N  N236  1  0.47159000  0.89232000  0.35679000  1
  N  N237  1  0.99695000  0.40746000  0.38989000  1
  N  N238  1  0.02931000  0.10717000  0.85667000  1
  N  N239  1  0.50223000  0.59263000  0.88964000  1
  N  N240  1  0.52842000  0.10768000  0.64321000  1
  N  N241  1  0.00305000  0.59254000  0.61011000  1
  N  N242  1  0.97069000  0.89283000  0.14333000  1
  N  N243  1  0.49777000  0.40736000  0.11036000  1
  O  O244  1  0.21607000  0.92191000  0.39392000  1
  O  O245  1  0.09182000  0.84670000  0.41875000  1
  O  O246  1  0.05558000  0.22281000  0.42828000  1
  O  O247  1  0.87425000  0.26866000  0.46874000  1
  O  O248  1  0.26282000  0.60657000  0.43544000  1
  O  O249  1  0.21177000  0.54310000  0.51859000  1
  O  O250  1  0.66076000  0.24161000  0.54400000  1
  O  O251  1  0.48005000  0.28127000  0.58405000  1
  O  O252  1  0.95996000  0.62069000  0.46577000  1
  O  O253  1  0.01520000  0.71024000  0.40381000  1
  O  O254  1  0.84525000  0.77398000  0.19962000  1
  O  O255  1  0.71949000  0.70653000  0.16254000  1
  O  O256  1  0.28591000  0.07528000  0.89377000  1
  O  O257  1  0.40624000  0.15304000  0.91872000  1
  O  O258  1  0.44649000  0.77697000  0.92826000  1
  O  O259  1  0.62756000  0.73079000  0.96860000  1
  O  O260  1  0.23981000  0.39384000  0.93702000  1
  O  O261  1  0.28584000  0.45675000  0.02155000  1
  O  O262  1  0.83870000  0.75928000  0.04408000  1
  O  O263  1  0.01857000  0.71889000  0.08449000  1
  O  O264  1  0.53689000  0.38313000  0.96560000  1
  O  O265  1  0.48608000  0.28933000  0.90636000  1
  O  O266  1  0.65165000  0.22639000  0.70010000  1
  O  O267  1  0.77761000  0.29343000  0.66270000  1
  O  O268  1  0.78393000  0.07809000  0.60608000  1
  O  O269  1  0.90818000  0.15329000  0.58125000  1
  O  O270  1  0.94442000  0.77719000  0.57172000  1
  O  O271  1  0.12576000  0.73134000  0.53126000  1
  O  O272  1  0.73718000  0.39342000  0.56456000  1
  O  O273  1  0.78823000  0.45689000  0.48141000  1
  O  O274  1  0.33924000  0.75839000  0.45600000  1
  O  O275  1  0.51995000  0.71873000  0.41595000  1
  O  O276  1  0.04004000  0.37931000  0.53422000  1
  O  O277  1  0.98480000  0.28976000  0.59619000  1
  O  O278  1  0.15475000  0.22602000  0.80038000  1
  O  O279  1  0.28051000  0.29347000  0.83746000  1
  O  O280  1  0.71409000  0.92472000  0.10623000  1
  O  O281  1  0.59377000  0.84696000  0.08128000  1
  O  O282  1  0.55351000  0.22302000  0.07174000  1
  O  O283  1  0.37244000  0.26921000  0.03140000  1
  O  O284  1  0.76019000  0.60616000  0.06298000  1
  O  O285  1  0.71416000  0.54324000  0.97845000  1
  O  O286  1  0.16130000  0.24072000  0.95592000  1
  O  O287  1  0.98143000  0.28111000  0.91551000  1
  O  O288  1  0.46311000  0.61686000  0.03440000  1
  O  O289  1  0.51392000  0.71066000  0.09364000  1
  O  O290  1  0.34835000  0.77361000  0.29990000  1
  O  O291  1  0.22239000  0.70656000  0.33730000  1
