# generated using pymatgen
data_H7C12N4O
_symmetry_space_group_name_H-M   'P 1'
_cell_length_a   10.75743333
_cell_length_b   23.09960000
_cell_length_c   29.68250000
_cell_angle_alpha   90.00000000
_cell_angle_beta   90.00000000
_cell_angle_gamma   90.00000000
_symmetry_Int_Tables_number   1
_chemical_formula_structural   H7C12N4O
_chemical_formula_sum   'H56 C96 N32 O8'
_cell_volume   7375.87587157
_cell_formula_units_Z   8
loop_
 _symmetry_equiv_pos_site_id
 _symmetry_equiv_pos_as_xyz
  1  'x, y, z'
loop_
 _atom_site_type_symbol
 _atom_site_label
 _atom_site_symmetry_multiplicity
 _atom_site_fract_x
 _atom_site_fract_y
 _atom_site_fract_z
 _atom_site_occupancy
  C  1  1  0.98709900  0.02714200  0.01533600  1
  C  2  1  0.09225000  0.06209900  0.00231100  1
  C  3  1  0.19246400  0.07560400  0.03161500  1
  C  4  1  0.19034100  0.04758000  0.07392900  1
  C  5  1  0.08715700  0.01591700  0.08992200  1
  C  6  1  0.98398100  0.00804000  0.06099200  1
  C  9  1  0.88854600  0.01097700  0.98496700  1
  C  10  1  0.85419700  0.04782000  0.94846000  1
  C  11  1  0.77234700  0.02833900  0.91433900  1
  C  12  1  0.71503800  0.97366500  0.91943300  1
  C  13  1  0.73398700  0.93709700  0.95687300  1
  C  14  1  0.82368200  0.95649100  0.98848400  1
  C  21  1  0.66486200  0.88424800  0.95736400  1
  C  22  1  0.08639000  0.99608900  0.13486100  1
  C  23  1  0.29123800  0.11614200  0.02472500  1
  C  24  1  0.75543200  0.05931400  0.87379000  1
  C  29  1  0.99851400  0.46315400  0.01541300  1
  C  30  1  0.89341400  0.42819700  0.00233800  1
  C  31  1  0.79281500  0.41492000  0.03153100  1
  C  32  1  0.79458800  0.44314500  0.07376800  1
  C  33  1  0.89763600  0.47486000  0.08980400  1
  C  34  1  0.00113600  0.48254000  0.06099900  1
  C  37  1  0.09768900  0.47893800  0.98519000  1
  C  38  1  0.13260400  0.44167600  0.94901300  1
  C  39  1  0.21541600  0.46071300  0.91504800  1
  C  40  1  0.27336300  0.51525000  0.92007200  1
  C  41  1  0.25371500  0.55224000  0.95721400  1
  C  42  1  0.16276800  0.53338700  0.98855000  1
  C  49  1  0.32335600  0.60494000  0.95765700  1
  C  50  1  0.89805900  0.49485600  0.13469600  1
  C  51  1  0.69398100  0.37442500  0.02460400  1
  C  52  1  0.23282600  0.42952200  0.87460700  1
  C  57  1  0.50282600  0.46989900  0.48213900  1
  C  58  1  0.60654000  0.43372500  0.49459500  1
  C  59  1  0.70696400  0.42054500  0.46526100  1
  C  60  1  0.70745100  0.45020000  0.42358300  1
  C  61  1  0.60628900  0.48367200  0.40823400  1
  C  62  1  0.50295100  0.49154400  0.43716300  1
  C  65  1  0.40114700  0.48398400  0.51186100  1
  C  66  1  0.36367100  0.44513900  0.54671300  1
  C  67  1  0.27532700  0.46192900  0.57959400  1
  C  68  1  0.21510300  0.51596700  0.57465200  1
  C  69  1  0.23852600  0.55475800  0.53899800  1
  C  70  1  0.33445100  0.53806200  0.50894000  1
  C  77  1  0.16736000  0.60699500  0.53873800  1
  C  78  1  0.60493800  0.50454200  0.36358500  1
  C  79  1  0.80270700  0.37833200  0.47154400  1
  C  80  1  0.25569500  0.42943100  0.61931400  1
  C  85  1  0.48229000  0.02051600  0.48224000  1
  C  86  1  0.37867100  0.05674000  0.49471200  1
  C  87  1  0.27798300  0.06977000  0.46544900  1
  C  88  1  0.27724800  0.03997300  0.42383200  1
  C  89  1  0.37826100  0.00642700  0.40846600  1
  C  90  1  0.48176700  0.99863500  0.43732800  1
  C  93  1  0.58444000  0.00672600  0.51183700  1
  C  94  1  0.62258100  0.04593000  0.54635600  1
  C  95  1  0.71221100  0.02962200  0.57893400  1
  C  96  1  0.77305200  0.97573400  0.57394800  1
  C  97  1  0.74844700  0.93646500  0.53871500  1
  C  98  1  0.65122200  0.95266000  0.50904400  1
  C  105  1  0.81977000  0.88427400  0.53847900  1
  C  106  1  0.37940900  0.98552100  0.36382100  1
  C  107  1  0.18218700  0.11195500  0.47174600  1
  C  108  1  0.73341500  0.06263600  0.61831100  1
  C  113  1  0.40621900  0.19801100  0.99258900  1
  C  114  1  0.45096100  0.22188400  0.03346100  1
  C  115  1  0.53452000  0.26862900  0.03343700  1
  C  116  1  0.57924300  0.29244300  0.99254400  1
  C  123  1  0.91036200  0.29402600  0.50335100  1
  C  124  1  0.95306200  0.26940800  0.46246500  1
  C  125  1  0.03186200  0.22085500  0.46249800  1
  C  126  1  0.07468100  0.19637400  0.50342100  1
  C  133  1  0.56928700  0.79581400  0.98807700  1
  C  134  1  0.53137800  0.76967000  0.94714900  1
  C  135  1  0.45856800  0.71908000  0.94716100  1
  C  136  1  0.41812200  0.69375400  0.98808300  1
  C  143  1  0.07088800  0.69521800  0.50826600  1
  C  144  1  0.03134900  0.72077300  0.54921300  1
  C  145  1  0.95646500  0.77071800  0.54919600  1
  C  146  1  0.91526000  0.79568300  0.50824600  1
  C  153  1  0.21582000  0.98229400  0.20158000  1
  C  154  1  0.34002200  0.97794200  0.21578400  1
  C  155  1  0.36533900  0.97583000  0.26203700  1
  C  156  1  0.26547800  0.98015800  0.29269800  1
  C  163  1  0.76850700  0.50847800  0.20138100  1
  C  164  1  0.64428600  0.51263400  0.21558800  1
  C  165  1  0.61894500  0.51465700  0.26184100  1
  C  166  1  0.71884300  0.51027600  0.29248900  1
  C  173  1  0.74538000  0.03017900  0.79230600  1
  C  174  1  0.75087800  0.97751400  0.76877400  1
  C  175  1  0.76013200  0.97885600  0.72189600  1
  C  176  1  0.75610000  0.03268300  0.69994800  1
  C  183  1  0.23646600  0.45953300  0.79320600  1
  C  184  1  0.22601300  0.51233300  0.77008500  1
  C  185  1  0.21716300  0.51142800  0.72319500  1
  C  186  1  0.22625100  0.45801600  0.70083900  1
  H  7  1  0.10100700  0.07632500  0.97002700  1
  H  8  1  0.26168300  0.05551200  0.09596900  1
  H  15  1  0.65191300  0.96120000  0.89538900  1
  H  16  1  0.84990700  0.92693800  0.01211800  1
  H  19  1  0.88725700  0.94726100  0.08753700  1
  H  20  1  0.94854500  0.10987700  0.92262900  1
  H  25  1  0.61648700  0.87626900  0.92839900  1
  H  26  1  0.00591500  0.98289000  0.15007500  1
  H  27  1  0.35166100  0.11887500  0.05120500  1
  H  28  1  0.78757300  0.10050500  0.86918400  1
  H  35  1  0.88493800  0.41386300  0.97007000  1
  H  36  1  0.72283500  0.43542600  0.09567900  1
  H  43  1  0.33724200  0.52729600  0.89615100  1
  H  44  1  0.13631100  0.56314700  0.01199400  1
  H  47  1  0.09764900  0.54345400  0.08744600  1
  H  48  1  0.03800600  0.37972400  0.92316200  1
  H  53  1  0.37323100  0.61235100  0.92893400  1
  H  54  1  0.97845900  0.50804400  0.14996700  1
  H  55  1  0.63332300  0.37180200  0.05102300  1
  H  56  1  0.20104800  0.38820900  0.87047600  1
  H  63  1  0.61332100  0.41767300  0.52641500  1
  H  64  1  0.77910300  0.44261700  0.40161000  1
  H  71  1  0.14714600  0.52648600  0.59748700  1
  H  72  1  0.36326200  0.56929700  0.48708800  1
  H  75  1  0.40700800  0.55358400  0.41213200  1
  H  76  1  0.45876900  0.38343800  0.57250900  1
  H  81  1  0.11540700  0.61352800  0.56711900  1
  H  82  1  0.52500000  0.52118100  0.35032800  1
  H  83  1  0.86279500  0.37495600  0.44499300  1
  H  84  1  0.29219000  0.38899000  0.62373800  1
  H  91  1  0.37213000  0.07289800  0.52650600  1
  H  92  1  0.20530100  0.04741500  0.40195700  1
  H  99  1  0.84204200  0.96566600  0.59650300  1
  H  100  1  0.62200600  0.92123500  0.48742200  1
  H  103  1  0.57738300  0.93642200  0.41240800  1
  H  104  1  0.52736100  0.10747900  0.57225600  1
  H  109  1  0.87318000  0.87827700  0.56658300  1
  H  110  1  0.45927000  0.96883300  0.35054000  1
  H  111  1  0.12188000  0.11520400  0.44524600  1
  H  112  1  0.69605900  0.10286200  0.62271700  1
  H  118  1  0.56558800  0.28309000  0.06393700  1
  H  119  1  0.41986400  0.20750000  0.06397700  1
  H  128  1  0.06163400  0.20566500  0.43204600  1
  H  129  1  0.92314500  0.28446500  0.43198900  1
  H  138  1  0.43269700  0.70248600  0.91668000  1
  H  139  1  0.55920500  0.78564700  0.91669400  1
  H  148  1  0.92952900  0.78709900  0.57962100  1
  H  149  1  0.05957000  0.70484900  0.57963100  1
  H  158  1  0.45570400  0.97563300  0.27258800  1
  H  159  1  0.41160600  0.97836200  0.19305300  1
  H  168  1  0.52857900  0.51433900  0.27239000  1
  H  169  1  0.57268500  0.51192800  0.19286800  1
  H  178  1  0.76379400  0.94078600  0.70421400  1
  H  179  1  0.75265800  0.93857800  0.78530500  1
  H  188  1  0.21057200  0.54963000  0.70579600  1
  H  189  1  0.22146800  0.55101500  0.78690900  1
  N  117  1  0.53341000  0.26673900  0.95452600  1
  N  120  1  0.45209800  0.22364100  0.95454700  1
  N  121  1  0.32180700  0.15305300  0.99038900  1
  N  122  1  0.66365400  0.33739900  0.99031400  1
  N  127  1  0.03132400  0.22297700  0.54143400  1
  N  130  1  0.95386700  0.26756400  0.54140300  1
  N  131  1  0.82993400  0.34049200  0.50562800  1
  N  132  1  0.15515000  0.14992800  0.50575900  1
  N  137  1  0.45726300  0.72169400  0.02609000  1
  N  140  1  0.52789700  0.76861000  0.02609300  1
  N  141  1  0.63843000  0.84593100  0.99116100  1
  N  142  1  0.34846700  0.64379600  0.99121400  1
  N  147  1  0.95592700  0.76827200  0.47022300  1
  N  150  1  0.02876300  0.72211000  0.47023000  1
  N  151  1  0.14209400  0.64577200  0.50516600  1
  N  152  1  0.84384000  0.84505500  0.50510600  1
  N  157  1  0.14820700  0.98374400  0.27612200  1
  N  160  1  0.12415200  0.98437900  0.23298900  1
  N  161  1  0.19387600  0.99198900  0.15783100  1
  N  162  1  0.27787900  0.98818900  0.33730000  1
  N  167  1  0.83614500  0.50693900  0.27591700  1
  N  170  1  0.86020200  0.50646700  0.23278400  1
  N  171  1  0.79050100  0.49882800  0.15762800  1
  N  172  1  0.70649500  0.50206400  0.33706700  1
  N  177  1  0.74792700  0.08201500  0.72475100  1
  N  180  1  0.74514700  0.08084200  0.76896000  1
  N  181  1  0.74546100  0.02560500  0.83713200  1
  N  182  1  0.75181600  0.02997500  0.65508600  1
  N  187  1  0.23852000  0.40856000  0.72527300  1
  N  190  1  0.24111300  0.40920700  0.76948800  1
  N  191  1  0.23825500  0.46359600  0.83804800  1
  N  192  1  0.23258500  0.46147600  0.65604300  1
  O  17  1  0.87499700  0.98810700  0.07917100  1
  O  18  1  0.89059800  0.10459400  0.94795700  1
  O  45  1  0.10995000  0.50254900  0.07926200  1
  O  46  1  0.09550200  0.38500100  0.94862700  1
  O  73  1  0.39476700  0.51222200  0.41881600  1
  O  74  1  0.40297400  0.38881300  0.54656500  1
  O  101  1  0.58978500  0.97781500  0.41894700  1
  O  102  1  0.58261000  0.10214600  0.54615400  1
