# generated using pymatgen
data_H10C20NO2
_symmetry_space_group_name_H-M   'P 1'
_cell_length_a   22.85730000
_cell_length_b   35.55760000
_cell_length_c   35.55760000
_cell_angle_alpha   60.00000000
_cell_angle_beta   89.99810000
_cell_angle_gamma   89.99620000
_symmetry_Int_Tables_number   1
_chemical_formula_structural   H10C20NO2
_chemical_formula_sum   'H120 C240 N12 O24'
_cell_volume   25027.67111473
_cell_formula_units_Z   12
loop_
 _symmetry_equiv_pos_site_id
 _symmetry_equiv_pos_as_xyz
  1  'x, y, z'
loop_
 _atom_site_type_symbol
 _atom_site_label
 _atom_site_symmetry_multiplicity
 _atom_site_fract_x
 _atom_site_fract_y
 _atom_site_fract_z
 _atom_site_occupancy
  C  1  1  0.99370900  0.49650950  0.20895950  1
  C  2  1  0.96329700  0.47306450  0.24941750  1
  C  3  1  0.96423400  0.42674050  0.27333550  1
  C  4  1  0.99916400  0.40549150  0.25681350  1
  C  5  1  0.03187600  0.42704300  0.21795900  1
  C  6  1  0.02733000  0.47323750  0.19327100  1
  C  7  1  0.93400400  0.49725600  0.26535300  1
  C  8  1  0.05468200  0.49742650  0.15237550  1
  C  10  1  0.99054100  0.54311650  0.18426150  1
  C  11  1  0.95675800  0.56630100  0.19982200  1
  C  12  1  0.95222600  0.61237250  0.17495850  1
  C  13  1  0.98462600  0.63500850  0.13611950  1
  C  14  1  0.01957400  0.61315900  0.12024000  1
  C  15  1  0.02139400  0.56680550  0.14410450  1
  C  16  1  0.92961600  0.54247300  0.24086100  1
  C  18  1  0.05366400  0.54278950  0.12933850  1
  C  23  1  0.32711600  0.13655650  0.21324950  1
  C  24  1  0.29668800  0.17700950  0.19625350  1
  C  25  1  0.29761200  0.20090500  0.21868200  1
  C  26  1  0.33256800  0.18438900  0.25643950  1
  C  27  1  0.36528800  0.14553850  0.27372250  1
  C  28  1  0.36074200  0.12086050  0.25220650  1
  C  29  1  0.26739000  0.19295550  0.15612850  1
  C  30  1  0.38809400  0.07996450  0.26889850  1
  C  32  1  0.32393600  0.11186650  0.19133150  1
  C  33  1  0.29015200  0.12743750  0.15258850  1
  C  34  1  0.28559400  0.10257750  0.13137800  1
  C  35  1  0.31795600  0.06371750  0.14759150  1
  C  36  1  0.35293400  0.04784450  0.18530300  1
  C  37  1  0.35478400  0.07170800  0.20779100  1
  C  38  1  0.26304000  0.16848950  0.13537500  1
  C  40  1  0.38708400  0.05694400  0.24655750  1
  C  45  1  0.66036300  0.14084500  0.56895900  1
  C  46  1  0.62994300  0.12385750  0.54549550  1
  C  47  1  0.63082600  0.14631800  0.49917000  1
  C  48  1  0.66578800  0.18406950  0.47793600  1
  C  49  1  0.69851900  0.20133950  0.49950800  1
  C  50  1  0.69398000  0.17980950  0.54570300  1
  C  51  1  0.60066200  0.08372600  0.56966600  1
  C  52  1  0.72133700  0.19648700  0.56991450  1
  C  54  1  0.65720400  0.11890750  0.61556850  1
  C  55  1  0.62343300  0.08015750  0.63873500  1
  C  56  1  0.61890000  0.05892450  0.68480950  1
  C  57  1  0.65127900  0.07511950  0.70746150  1
  C  58  1  0.68623100  0.11284500  0.68562800  1
  C  59  1  0.68805200  0.13535600  0.63927500  1
  C  60  1  0.59631600  0.06295900  0.61488800  1
  C  62  1  0.72033900  0.17412850  0.61527800  1
  C  67  1  0.99367900  0.35270800  0.78517750  1
  C  68  1  0.96327500  0.37615900  0.74471650  1
  C  69  1  0.96420000  0.42248300  0.72081400  1
  C  70  1  0.99911600  0.44372650  0.73734400  1
  C  71  1  0.03180600  0.42216900  0.77620950  1
  C  72  1  0.02728600  0.37597450  0.80087750  1
  C  73  1  0.93400000  0.35197650  0.72876700  1
  C  74  1  0.05463000  0.35177400  0.84177500  1
  C  76  1  0.99051000  0.30609800  0.80986950  1
  C  77  1  0.95674500  0.28292300  0.79429350  1
  C  78  1  0.95220300  0.23685050  0.81915350  1
  C  79  1  0.98456500  0.21420950  0.85801000  1
  C  80  1  0.01950200  0.23605050  0.87390100  1
  C  81  1  0.02134000  0.28240400  0.85003400  1
  C  82  1  0.92965500  0.30675650  0.75323600  1
  C  84  1  0.05360600  0.30641250  0.86480750  1
  C  89  1  0.32711600  0.71262800  0.78088850  1
  C  90  1  0.29670200  0.67217200  0.79789800  1
  C  91  1  0.29763400  0.64825800  0.77548800  1
  C  92  1  0.33256400  0.66477750  0.73771800  1
  C  93  1  0.36527400  0.70363000  0.72041850  1
  C  94  1  0.36073800  0.72831500  0.74192850  1
  C  95  1  0.26741200  0.65623500  0.83802450  1
  C  96  1  0.38809400  0.76920800  0.72522550  1
  C  98  1  0.32394800  0.73732500  0.80279800  1
  C  99  1  0.29017000  0.72176400  0.84154350  1
  C  100  1  0.28563800  0.74662750  0.86275250  1
  C  101  1  0.31803400  0.78546800  0.84654800  1
  C  102  1  0.35297600  0.80134650  0.80881850  1
  C  103  1  0.35480200  0.77748100  0.78633200  1
  C  104  1  0.26302800  0.68072600  0.85875250  1
  C  106  1  0.38707600  0.79224400  0.74755300  1
  C  111  1  0.66040600  0.70838600  0.42515850  1
  C  112  1  0.62998700  0.72537800  0.44862150  1
  C  113  1  0.63091100  0.70293800  0.49494500  1
  C  114  1  0.66584700  0.66516800  0.51618300  1
  C  115  1  0.69856000  0.64789050  0.49460800  1
  C  116  1  0.69401900  0.66941950  0.44841400  1
  C  117  1  0.60070000  0.76551000  0.42445000  1
  C  118  1  0.72136600  0.65273450  0.42420150  1
  C  120  1  0.65723400  0.73031800  0.37855050  1
  C  121  1  0.62346000  0.76906800  0.35538400  1
  C  122  1  0.61891000  0.79029250  0.30931100  1
  C  123  1  0.65127600  0.77408900  0.28665900  1
  C  124  1  0.68624300  0.73637000  0.30849150  1
  C  125  1  0.68807800  0.71386400  0.35484400  1
  C  126  1  0.59635700  0.78627700  0.37922900  1
  C  128  1  0.72036400  0.67508650  0.37884000  1
  C  133  1  0.05320000  0.63885750  0.08162250  1
  C  134  1  0.04284000  0.63760650  0.04311800  1
  C  135  1  0.08086600  0.65864750  0.00732800  1
  C  136  1  0.12976600  0.68284600  0.00801000  1
  C  137  1  0.13835600  0.68649400  0.04573700  1
  C  138  1  0.10036200  0.66437700  0.08193300  1
  C  140  1  0.16936400  0.70152600  0.97169850  1
  C  141  1  0.14851200  0.72574100  0.92846100  1
  C  142  1  0.18700400  0.74180150  0.89275150  1
  C  143  1  0.24790400  0.73449400  0.89906400  1
  C  144  1  0.26923600  0.71054500  0.94199300  1
  C  145  1  0.23052200  0.69419250  0.97761650  1
  C  155  1  0.38653200  0.00921350  0.19822150  1
  C  156  1  0.37616400  0.97071600  0.23798500  1
  C  157  1  0.41417000  0.93491200  0.25273500  1
  C  158  1  0.46307000  0.93558000  0.22786050  1
  C  159  1  0.47166600  0.97329800  0.18647900  1
  C  160  1  0.43367800  0.00950050  0.17238650  1
  C  162  1  0.50265400  0.89925500  0.24549650  1
  C  163  1  0.48178000  0.85602500  0.26451900  1
  C  164  1  0.52025800  0.82030600  0.28416500  1
  C  165  1  0.58116500  0.82659900  0.28514950  1
  C  166  1  0.60252000  0.86952500  0.26613900  1
  C  167  1  0.56381900  0.90516000  0.24687350  1
  C  177  1  0.71982600  0.12575200  0.71135000  1
  C  178  1  0.70950100  0.16552350  0.71007300  1
  C  179  1  0.74746300  0.18024200  0.73117350  1
  C  180  1  0.79638500  0.15537500  0.75534750  1
  C  181  1  0.80501100  0.11401550  0.75896650  1
  C  182  1  0.76702800  0.09994300  0.73683600  1
  C  184  1  0.83596500  0.17300300  0.77404500  1
  C  185  1  0.81509200  0.19201100  0.79826850  1
  C  186  1  0.85356100  0.21167600  0.81432150  1
  C  187  1  0.91446100  0.21268650  0.80700900  1
  C  188  1  0.93582900  0.19367850  0.78309400  1
  C  189  1  0.89713100  0.17440700  0.76673350  1
  C  199  1  0.05311600  0.21033950  0.91252050  1
  C  200  1  0.04279200  0.21161000  0.95101900  1
  C  201  1  0.08079200  0.19053900  0.98682150  1
  C  202  1  0.12972600  0.16637950  0.98611650  1
  C  203  1  0.13833200  0.16274850  0.94838250  1
  C  204  1  0.10032200  0.18485850  0.91219150  1
  C  206  1  0.16932000  0.14768550  0.02243500  1
  C  207  1  0.14846000  0.12345450  0.06566600  1
  C  208  1  0.18694400  0.10738650  0.10138100  1
  C  209  1  0.24783800  0.11471450  0.09507950  1
  C  210  1  0.26917800  0.13869900  0.05215250  1
  C  211  1  0.23048200  0.15500900  0.01652050  1
  C  221  1  0.38659000  0.83997300  0.79589250  1
  C  222  1  0.37621600  0.87847000  0.75613050  1
  C  223  1  0.41422600  0.91427000  0.74137750  1
  C  224  1  0.46311600  0.91360700  0.76625700  1
  C  225  1  0.47171800  0.87588700  0.80763600  1
  C  226  1  0.43374400  0.83967950  0.82172050  1
  C  228  1  0.50268800  0.94993300  0.74862400  1
  C  229  1  0.48180200  0.99316300  0.72959400  1
  C  230  1  0.52026600  0.02888700  0.70995150  1
  C  231  1  0.58118100  0.02260250  0.70897300  1
  C  232  1  0.60254200  0.97967700  0.72795450  1
  C  233  1  0.56385400  0.94403900  0.74721900  1
  C  243  1  0.71984500  0.72346200  0.28277150  1
  C  244  1  0.70947300  0.68371000  0.28401700  1
  C  245  1  0.74747700  0.66897050  0.26295350  1
  C  246  1  0.79638000  0.69384800  0.23875600  1
  C  247  1  0.80498100  0.73522000  0.23511300  1
  C  248  1  0.76698800  0.74930050  0.25723300  1
  C  250  1  0.83596400  0.67622000  0.22006200  1
  C  251  1  0.81509600  0.65721200  0.19584000  1
  C  252  1  0.85357400  0.63755700  0.17977600  1
  C  253  1  0.91447400  0.63654750  0.18708450  1
  C  254  1  0.93583300  0.65556050  0.21099650  1
  C  255  1  0.89713100  0.67483200  0.22735800  1
  C  265  1  0.92938500  0.39954500  0.31140400  1
  C  266  1  0.86889900  0.40673400  0.31281600  1
  C  267  1  0.83396500  0.37752000  0.34787700  1
  C  268  1  0.85548900  0.33684550  0.38118950  1
  C  269  1  0.91632300  0.32862650  0.37919300  1
  C  270  1  0.95225100  0.36076000  0.34629800  1
  C  272  1  0.81529800  0.30516850  0.41288350  1
  C  273  1  0.75559600  0.30370200  0.40256950  1
  C  274  1  0.71660700  0.27233700  0.43229100  1
  C  275  1  0.73592700  0.23801750  0.47290050  1
  C  276  1  0.79546900  0.23895000  0.48330200  1
  C  277  1  0.83283600  0.27304950  0.45529050  1
  C  287  1  0.26277000  0.23897600  0.20781350  1
  C  288  1  0.20228100  0.24038150  0.19922250  1
  C  289  1  0.16733800  0.27543200  0.19339500  1
  C  290  1  0.18885400  0.30872700  0.20078300  1
  C  291  1  0.24969900  0.30675300  0.21095350  1
  C  292  1  0.28564600  0.27388150  0.21168050  1
  C  294  1  0.14866200  0.34043000  0.20074900  1
  C  295  1  0.08897000  0.33010900  0.21255600  1
  C  296  1  0.04996200  0.35984050  0.21416550  1
  C  297  1  0.06932200  0.40041600  0.20793600  1
  C  298  1  0.12884200  0.41084400  0.19656300  1
  C  299  1  0.16620000  0.38284000  0.19045200  1
  C  309  1  0.59604200  0.13543750  0.47195150  1
  C  310  1  0.53556200  0.12680550  0.47915350  1
  C  311  1  0.50065000  0.12095850  0.44992950  1
  C  312  1  0.52220000  0.12831600  0.40926200  1
  C  313  1  0.58303400  0.13852300  0.40106250  1
  C  314  1  0.61895300  0.13928350  0.43320000  1
  C  316  1  0.48202100  0.12829200  0.37758300  1
  C  317  1  0.42231200  0.14006600  0.37610700  1
  C  318  1  0.38332600  0.14169650  0.34474300  1
  C  319  1  0.40270800  0.13547200  0.31039400  1
  C  320  1  0.46224200  0.12412300  0.31134200  1
  C  321  1  0.49959000  0.11802900  0.34545300  1
  C  331  1  0.92938000  0.44969800  0.68273400  1
  C  332  1  0.86890300  0.44248450  0.68131500  1
  C  333  1  0.83397100  0.47170000  0.64625200  1
  C  334  1  0.85549800  0.51237250  0.61294100  1
  C  335  1  0.91632800  0.52058900  0.61495250  1
  C  336  1  0.95228600  0.48843200  0.64780600  1
  C  338  1  0.81531000  0.54404600  0.58123750  1
  C  339  1  0.75559700  0.54550700  0.59153550  1
  C  340  1  0.71659900  0.57685600  0.56179900  1
  C  341  1  0.73595300  0.61119950  0.52121300  1
  C  342  1  0.79549200  0.61025850  0.51081500  1
  C  343  1  0.83285400  0.57615250  0.53883000  1
  C  353  1  0.26277000  0.61019700  0.78635350  1
  C  354  1  0.20228400  0.60879950  0.79494650  1
  C  355  1  0.16733400  0.57375200  0.80077850  1
  C  356  1  0.18884600  0.54043900  0.79341350  1
  C  357  1  0.24968000  0.54242050  0.78321000  1
  C  358  1  0.28562000  0.57530250  0.78246100  1
  C  360  1  0.14864400  0.50876250  0.79341350  1
  C  361  1  0.08894800  0.51909650  0.78161350  1
  C  362  1  0.04994800  0.48939250  0.77995250  1
  C  363  1  0.06927400  0.44879250  0.78622000  1
  C  364  1  0.12879000  0.43834650  0.79760900  1
  C  365  1  0.16616200  0.46634700  0.80371050  1
  C  375  1  0.59608600  0.71380800  0.52215650  1
  C  376  1  0.53559600  0.72241200  0.51497550  1
  C  377  1  0.50066800  0.72823300  0.54420950  1
  C  378  1  0.52220000  0.72082600  0.58489650  1
  C  379  1  0.58304400  0.71064400  0.59308500  1
  C  380  1  0.61897500  0.70992350  0.56093100  1
  C  382  1  0.48202600  0.72085400  0.61657550  1
  C  383  1  0.42232800  0.70905300  0.61806300  1
  C  384  1  0.38333000  0.70743800  0.64941350  1
  C  385  1  0.40270800  0.71365700  0.68376400  1
  C  386  1  0.46223300  0.72502200  0.68281450  1
  C  387  1  0.49957800  0.73113700  0.64869450  1
  H  9  1  0.00093400  0.37234200  0.27411800  1
  H  17  1  0.98195300  0.66823600  0.11857800  1
  H  19  1  0.90723800  0.55775300  0.25431100  1
  H  20  1  0.91555900  0.48242550  0.29554450  1
  H  21  1  0.07666200  0.55775450  0.10096050  1
  H  22  1  0.07597600  0.48250200  0.13818150  1
  H  31  1  0.33433600  0.20168600  0.27229100  1
  H  39  1  0.31528200  0.04618800  0.13189500  1
  H  41  1  0.24061000  0.18193000  0.10666900  1
  H  42  1  0.24894400  0.22314550  0.14077800  1
  H  43  1  0.41005200  0.02855100  0.25997700  1
  H  44  1  0.40939600  0.06576600  0.29801300  1
  H  53  1  0.66754600  0.19992800  0.44478800  1
  H  61  1  0.64862900  0.05940400  0.74068950  1
  H  63  1  0.57393500  0.03423000  0.63015300  1
  H  64  1  0.58222700  0.06837950  0.55481950  1
  H  65  1  0.74331600  0.18753950  0.63025250  1
  H  66  1  0.74262900  0.22560550  0.55500450  1
  H  75  1  0.00088000  0.47687600  0.72004300  1
  H  83  1  0.98189600  0.18098250  0.87554100  1
  H  85  1  0.90722400  0.29148500  0.73980050  1
  H  86  1  0.91555300  0.36681150  0.69857800  1
  H  87  1  0.07659200  0.29144450  0.89319100  1
  H  88  1  0.07590600  0.36669450  0.85598100  1
  H  97  1  0.33432600  0.64747700  0.72187150  1
  H  105  1  0.31535600  0.80300800  0.86223400  1
  H  107  1  0.24065000  0.66727400  0.88748200  1
  H  108  1  0.24896200  0.62604800  0.85338200  1
  H  109  1  0.41007400  0.82062000  0.73414050  1
  H  110  1  0.40938800  0.78340050  0.69611000  1
  H  119  1  0.66760800  0.64930750  0.54933050  1
  H  127  1  0.64861200  0.78979700  0.25343050  1
  H  129  1  0.57393900  0.81498900  0.36396650  1
  H  130  1  0.58226100  0.78085800  0.43929450  1
  H  131  1  0.74333000  0.66167350  0.36386150  1
  H  132  1  0.74265900  0.62361400  0.43911150  1
  H  139  1  0.10831600  0.66617550  0.10931950  1
  H  146  1  0.10471400  0.73156000  0.92251050  1
  H  147  1  0.17006400  0.75810900  0.86201000  1
  H  148  1  0.31283200  0.70336700  0.94755300  1
  H  149  1  0.00921800  0.61934600  0.04172000  1
  H  150  1  0.24742200  0.67536500  0.00807100  1
  H  151  1  0.07344200  0.65477900  0.98108400  1
  H  161  1  0.44165800  0.03688550  0.14320700  1
  H  168  1  0.43797800  0.85008450  0.26466400  1
  H  169  1  0.50330600  0.78956950  0.29860850  1
  H  170  1  0.64610800  0.87507900  0.26779150  1
  H  171  1  0.34255400  0.96933600  0.25764600  1
  H  172  1  0.58072800  0.93560400  0.23528750  1
  H  173  1  0.40675400  0.90867900  0.28285800  1
  H  183  1  0.77498600  0.07075500  0.73864150  1
  H  190  1  0.77129400  0.19211050  0.80410800  1
  H  191  1  0.83661600  0.22607050  0.83066550  1
  H  192  1  0.97941600  0.19534900  0.77587150  1
  H  193  1  0.67579200  0.18513600  0.69189100  1
  H  194  1  0.91403700  0.16283550  0.74786150  1
  H  195  1  0.74001300  0.21034600  0.72732500  1
  H  205  1  0.10828400  0.18306550  0.88480300  1
  H  212  1  0.10466600  0.11761400  0.07161050  1
  H  213  1  0.17000200  0.09104450  0.13212050  1
  H  214  1  0.31277600  0.14587700  0.04659300  1
  H  215  1  0.00910400  0.22981600  0.95243650  1
  H  216  1  0.24737000  0.17389550  0.98607450  1
  H  217  1  0.07336000  0.19439700  0.01307250  1
  H  227  1  0.44170600  0.81230000  0.85090950  1
  H  234  1  0.43799600  0.99909900  0.72945400  1
  H  235  1  0.50330600  0.05962100  0.69551600  1
  H  236  1  0.64614800  0.97413300  0.72634750  1
  H  237  1  0.34260000  0.87985500  0.73647250  1
  H  238  1  0.58077800  0.91359100  0.75885000  1
  H  239  1  0.40679400  0.94050800  0.71126200  1
  H  249  1  0.77496900  0.77847300  0.25545350  1
  H  256  1  0.77129400  0.65707550  0.19003500  1
  H  257  1  0.83662600  0.62311650  0.16347850  1
  H  258  1  0.97942000  0.65389250  0.21821850  1
  H  259  1  0.67585900  0.66404700  0.30229000  1
  H  260  1  0.91403500  0.68640800  0.24622600  1
  H  261  1  0.74006200  0.63885400  0.26682900  1
  H  271  1  0.99573800  0.35393250  0.34631550  1
  H  278  1  0.73936500  0.32473600  0.37247800  1
  H  279  1  0.67410400  0.27355650  0.42273150  1
  H  280  1  0.81270900  0.21443450  0.51146500  1
  H  281  1  0.84907700  0.43319450  0.28776900  1
  H  282  1  0.87384300  0.27316450  0.46643550  1
  H  283  1  0.79122100  0.38609000  0.34739500  1
  H  293  1  0.32912800  0.27387600  0.21850400  1
  H  300  1  0.07275200  0.30000750  0.22163100  1
  H  301  1  0.00748400  0.35024600  0.22257900  1
  H  302  1  0.14607200  0.43901450  0.19290050  1
  H  303  1  0.18246200  0.21532850  0.19781900  1
  H  304  1  0.20720200  0.39398550  0.17917750  1
  H  305  1  0.12459000  0.27494700  0.18532000  1
  H  315  1  0.66243200  0.14613200  0.42638200  1
  H  322  1  0.40608400  0.14917600  0.39710400  1
  H  323  1  0.34085000  0.15013000  0.34590000  1
  H  324  1  0.47949200  0.12047350  0.28683000  1
  H  325  1  0.51572200  0.12541450  0.50559800  1
  H  326  1  0.54058800  0.10674300  0.34559500  1
  H  327  1  0.45790600  0.11287100  0.45849200  1
  H  337  1  0.99574300  0.49530050  0.64784250  1
  H  344  1  0.73938700  0.52451950  0.62164900  1
  H  345  1  0.67412600  0.57569800  0.57139350  1
  H  346  1  0.81274200  0.63477750  0.48265850  1
  H  347  1  0.84907200  0.41604800  0.70638350  1
  H  348  1  0.87386900  0.57603400  0.52769450  1
  H  349  1  0.79122600  0.46313800  0.64673050  1
  H  359  1  0.32911000  0.57527450  0.77565700  1
  H  366  1  0.07273000  0.54919250  0.77256000  1
  H  367  1  0.00744600  0.49896100  0.77160450  1
  H  368  1  0.14601400  0.41017250  0.80127150  1
  H  369  1  0.18247200  0.63385100  0.79636050  1
  H  370  1  0.20716000  0.45518750  0.81499300  1
  H  371  1  0.12459000  0.57424400  0.80885850  1
  H  381  1  0.66246100  0.70309000  0.56774600  1
  H  388  1  0.40610000  0.69998800  0.59703350  1
  H  389  1  0.34085400  0.69902950  0.64823450  1
  H  390  1  0.47947400  0.72867600  0.70732500  1
  H  391  1  0.51577000  0.72382900  0.48851450  1
  H  392  1  0.54058400  0.74240450  0.64856300  1
  H  393  1  0.45792000  0.73631600  0.53565350  1
  N  152  1  0.18395800  0.71307800  0.04649700  1
  N  174  1  0.51726600  0.97404000  0.15913800  1
  N  196  1  0.85062500  0.08667350  0.78554200  1
  N  218  1  0.18396300  0.13619050  0.94760450  1
  N  240  1  0.51730800  0.87514500  0.83498000  1
  N  262  1  0.85057800  0.76256400  0.20852300  1
  N  284  1  0.94140600  0.28736750  0.40712250  1
  N  306  1  0.27477800  0.33467650  0.22429200  1
  N  328  1  0.60813300  0.15186450  0.35980400  1
  N  350  1  0.94139200  0.56185300  0.58702200  1
  N  372  1  0.27475200  0.51448550  0.76988150  1
  N  394  1  0.60813400  0.69728500  0.63434900  1
  O  153  1  0.21917200  0.69186500  0.07709800  1
  O  154  1  0.16403000  0.74403500  0.05015400  1
  O  175  1  0.55248800  0.00463850  0.14973850  1
  O  176  1  0.49733800  0.97768700  0.12453000  1
  O  197  1  0.88584900  0.07730850  0.76431500  1
  O  198  1  0.83071500  0.05204700  0.81649000  1
  O  219  1  0.21916400  0.15742900  0.91699850  1
  O  220  1  0.16407400  0.10523250  0.94393750  1
  O  241  1  0.55254200  0.84455050  0.84437650  1
  O  242  1  0.49737200  0.87149000  0.86959000  1
  O  263  1  0.88580300  0.77194900  0.22973350  1
  O  264  1  0.83065300  0.79718000  0.17757000  1
  O  285  1  0.98344500  0.28959500  0.42876100  1
  O  286  1  0.95849100  0.26888100  0.38680400  1
  O  307  1  0.31679800  0.35633150  0.20041750  1
  O  308  1  0.29189000  0.31434700  0.26309050  1
  O  329  1  0.65018300  0.12800550  0.36203250  1
  O  330  1  0.62520400  0.19067150  0.34132450  1
  O  351  1  0.98342400  0.55963950  0.56536900  1
  O  352  1  0.95848500  0.58032850  0.60734850  1
  O  373  1  0.31677800  0.49283300  0.79375450  1
  O  374  1  0.29185000  0.53480050  0.73108100  1
  O  395  1  0.65016500  0.72114900  0.63213650  1
  O  396  1  0.62523200  0.65848450  0.65280550  1
