# generated using pymatgen
data_Zn2H8C15O7
_symmetry_space_group_name_H-M   'P 1'
_cell_length_a   16.36997000
_cell_length_b   16.36997000
_cell_length_c   30.50704000
_cell_angle_alpha   90.00000000
_cell_angle_beta   90.00000000
_cell_angle_gamma   90.00000000
_symmetry_Int_Tables_number   1
_chemical_formula_structural   Zn2H8C15O7
_chemical_formula_sum   'Zn32 H128 C240 O112'
_cell_volume   8175.15204339
_cell_formula_units_Z   16
loop_
 _symmetry_equiv_pos_site_id
 _symmetry_equiv_pos_as_xyz
  1  'x, y, z'
loop_
 _atom_site_type_symbol
 _atom_site_label
 _atom_site_symmetry_multiplicity
 _atom_site_fract_x
 _atom_site_fract_y
 _atom_site_fract_z
 _atom_site_occupancy
  Zn  Zn1  1  0.62815000  0.89117000  0.79250000  1.0
  Zn  Zn2  1  0.62436000  0.88971000  0.89913000  1.0
  Zn  Zn3  1  0.87185000  0.60883000  0.79250000  1.0
  Zn  Zn4  1  0.87564000  0.61029000  0.89913000  1.0
  Zn  Zn5  1  0.60883000  0.62815000  0.79250000  1.0
  Zn  Zn6  1  0.61029000  0.62436000  0.89913000  1.0
  Zn  Zn7  1  0.89117000  0.87185000  0.79250000  1.0
  Zn  Zn8  1  0.88971000  0.87564000  0.89913000  1.0
  Zn  Zn9  1  0.37185000  0.39117000  0.70750000  1.0
  Zn  Zn10  1  0.37564000  0.38971000  0.60087000  1.0
  Zn  Zn11  1  0.12815000  0.10883000  0.70750000  1.0
  Zn  Zn12  1  0.12436000  0.11029000  0.60087000  1.0
  Zn  Zn13  1  0.39117000  0.12815000  0.70750000  1.0
  Zn  Zn14  1  0.38971000  0.12436000  0.60087000  1.0
  Zn  Zn15  1  0.10883000  0.37185000  0.70750000  1.0
  Zn  Zn16  1  0.11029000  0.37564000  0.60087000  1.0
  Zn  Zn17  1  0.37185000  0.10883000  0.20750000  1.0
  Zn  Zn18  1  0.37564000  0.11029000  0.10087000  1.0
  Zn  Zn19  1  0.12815000  0.39117000  0.20750000  1.0
  Zn  Zn20  1  0.12436000  0.38971000  0.10087000  1.0
  Zn  Zn21  1  0.39117000  0.37185000  0.20750000  1.0
  Zn  Zn22  1  0.38971000  0.37564000  0.10087000  1.0
  Zn  Zn23  1  0.10883000  0.12815000  0.20750000  1.0
  Zn  Zn24  1  0.11029000  0.12436000  0.10087000  1.0
  Zn  Zn25  1  0.62815000  0.60883000  0.29250000  1.0
  Zn  Zn26  1  0.62436000  0.61029000  0.39913000  1.0
  Zn  Zn27  1  0.87185000  0.89117000  0.29250000  1.0
  Zn  Zn28  1  0.87564000  0.88971000  0.39913000  1.0
  Zn  Zn29  1  0.60883000  0.87185000  0.29250000  1.0
  Zn  Zn30  1  0.61029000  0.87564000  0.39913000  1.0
  Zn  Zn31  1  0.89117000  0.62815000  0.29250000  1.0
  Zn  Zn32  1  0.88971000  0.62436000  0.39913000  1.0
  H  H1  1  0.39067000  0.97842000  0.91429000  1.0
  H  H2  1  0.17711000  0.05419000  0.84200000  1.0
  H  H3  1  0.40407000  0.00861000  0.77483000  1.0
  H  H4  1  0.32613000  0.05895000  0.96633000  1.0
  H  H5  1  0.10361000  0.99613000  0.03317000  1.0
  H  H6  1  0.04131000  0.95398000  0.96188000  1.0
  H  H7  1  0.12032000  0.96539000  0.89345000  1.0
  H  H8  1  0.73537000  0.84630000  0.84682000  1.0
  H  H9  1  0.10933000  0.52157000  0.91429000  1.0
  H  H10  1  0.32289000  0.44581000  0.84200000  1.0
  H  H11  1  0.09593000  0.49139000  0.77483000  1.0
  H  H12  1  0.17387000  0.44105000  0.96633000  1.0
  H  H13  1  0.39639000  0.50387000  0.03317000  1.0
  H  H14  1  0.45869000  0.54602000  0.96188000  1.0
  H  H15  1  0.37968000  0.53461000  0.89345000  1.0
  H  H16  1  0.76463000  0.65370000  0.84682000  1.0
  H  H17  1  0.52157000  0.39067000  0.91429000  1.0
  H  H18  1  0.44581000  0.17711000  0.84200000  1.0
  H  H19  1  0.49139000  0.40407000  0.77483000  1.0
  H  H20  1  0.44105000  0.32613000  0.96633000  1.0
  H  H21  1  0.50387000  0.10361000  0.03317000  1.0
  H  H22  1  0.54602000  0.04131000  0.96188000  1.0
  H  H23  1  0.53461000  0.12032000  0.89345000  1.0
  H  H24  1  0.65370000  0.73537000  0.84682000  1.0
  H  H25  1  0.97842000  0.10933000  0.91429000  1.0
  H  H26  1  0.05419000  0.32289000  0.84200000  1.0
  H  H27  1  0.00861000  0.09593000  0.77483000  1.0
  H  H28  1  0.05895000  0.17387000  0.96633000  1.0
  H  H29  1  0.99613000  0.39639000  0.03317000  1.0
  H  H30  1  0.95398000  0.45869000  0.96188000  1.0
  H  H31  1  0.96539000  0.37968000  0.89345000  1.0
  H  H32  1  0.84630000  0.76463000  0.84682000  1.0
  H  H33  1  0.60933000  0.47843000  0.58571000  1.0
  H  H34  1  0.82289000  0.55419000  0.65801000  1.0
  H  H35  1  0.59593000  0.50861000  0.72518000  1.0
  H  H36  1  0.67387000  0.55895000  0.53367000  1.0
  H  H37  1  0.89638000  0.49613000  0.46683000  1.0
  H  H38  1  0.95869000  0.45398000  0.53813000  1.0
  H  H39  1  0.87968000  0.46539000  0.60656000  1.0
  H  H40  1  0.26463000  0.34630000  0.65319000  1.0
  H  H41  1  0.89067000  0.02157000  0.58571000  1.0
  H  H42  1  0.67711000  0.94581000  0.65801000  1.0
  H  H43  1  0.90407000  0.99139000  0.72518000  1.0
  H  H44  1  0.82613000  0.94105000  0.53367000  1.0
  H  H45  1  0.60361000  0.00387000  0.46683000  1.0
  H  H46  1  0.54131000  0.04602000  0.53813000  1.0
  H  H47  1  0.62032000  0.03461000  0.60656000  1.0
  H  H48  1  0.23537000  0.15370000  0.65319000  1.0
  H  H49  1  0.47843000  0.89067000  0.58571000  1.0
  H  H50  1  0.55419000  0.67711000  0.65801000  1.0
  H  H51  1  0.50861000  0.90407000  0.72518000  1.0
  H  H52  1  0.55895000  0.82613000  0.53367000  1.0
  H  H53  1  0.49613000  0.60361000  0.46683000  1.0
  H  H54  1  0.45398000  0.54131000  0.53813000  1.0
  H  H55  1  0.46539000  0.62032000  0.60656000  1.0
  H  H56  1  0.34630000  0.23537000  0.65319000  1.0
  H  H57  1  0.02157000  0.60933000  0.58571000  1.0
  H  H58  1  0.94581000  0.82289000  0.65801000  1.0
  H  H59  1  0.99139000  0.59593000  0.72518000  1.0
  H  H60  1  0.94105000  0.67387000  0.53367000  1.0
  H  H61  1  0.00387000  0.89638000  0.46683000  1.0
  H  H62  1  0.04602000  0.95869000  0.53813000  1.0
  H  H63  1  0.03461000  0.87968000  0.60656000  1.0
  H  H64  1  0.15370000  0.26463000  0.65319000  1.0
  H  H65  1  0.60933000  0.02157000  0.08571000  1.0
  H  H66  1  0.82289000  0.94581000  0.15800000  1.0
  H  H67  1  0.59593000  0.99139000  0.22518000  1.0
  H  H68  1  0.67387000  0.94105000  0.03367000  1.0
  H  H69  1  0.89638000  0.00387000  0.96683000  1.0
  H  H70  1  0.95869000  0.04602000  0.03812000  1.0
  H  H71  1  0.87968000  0.03461000  0.10656000  1.0
  H  H72  1  0.26463000  0.15370000  0.15318000  1.0
  H  H73  1  0.89067000  0.47843000  0.08571000  1.0
  H  H74  1  0.67711000  0.55419000  0.15800000  1.0
  H  H75  1  0.90407000  0.50861000  0.22518000  1.0
  H  H76  1  0.82613000  0.55895000  0.03367000  1.0
  H  H77  1  0.60361000  0.49613000  0.96683000  1.0
  H  H78  1  0.54131000  0.45398000  0.03812000  1.0
  H  H79  1  0.62032000  0.46539000  0.10656000  1.0
  H  H80  1  0.23537000  0.34630000  0.15318000  1.0
  H  H81  1  0.47843000  0.60933000  0.08571000  1.0
  H  H82  1  0.55419000  0.82289000  0.15800000  1.0
  H  H83  1  0.50861000  0.59593000  0.22518000  1.0
  H  H84  1  0.55895000  0.67387000  0.03367000  1.0
  H  H85  1  0.49613000  0.89638000  0.96683000  1.0
  H  H86  1  0.45398000  0.95869000  0.03812000  1.0
  H  H87  1  0.46539000  0.87968000  0.10656000  1.0
  H  H88  1  0.34630000  0.26463000  0.15318000  1.0
  H  H89  1  0.02157000  0.89067000  0.08571000  1.0
  H  H90  1  0.94581000  0.67711000  0.15800000  1.0
  H  H91  1  0.99139000  0.90407000  0.22518000  1.0
  H  H92  1  0.94105000  0.82613000  0.03367000  1.0
  H  H93  1  0.00387000  0.60361000  0.96683000  1.0
  H  H94  1  0.04602000  0.54131000  0.03812000  1.0
  H  H95  1  0.03461000  0.62032000  0.10656000  1.0
  H  H96  1  0.15370000  0.23537000  0.15318000  1.0
  H  H97  1  0.39067000  0.52157000  0.41429000  1.0
  H  H98  1  0.17711000  0.44581000  0.34200000  1.0
  H  H99  1  0.40407000  0.49139000  0.27483000  1.0
  H  H100  1  0.32613000  0.44105000  0.46633000  1.0
  H  H101  1  0.10361000  0.50387000  0.53317000  1.0
  H  H102  1  0.04131000  0.54602000  0.46188000  1.0
  H  H103  1  0.12032000  0.53461000  0.39344000  1.0
  H  H104  1  0.73537000  0.65370000  0.34682000  1.0
  H  H105  1  0.10933000  0.97842000  0.41429000  1.0
  H  H106  1  0.32289000  0.05419000  0.34200000  1.0
  H  H107  1  0.09593000  0.00861000  0.27483000  1.0
  H  H108  1  0.17387000  0.05895000  0.46633000  1.0
  H  H109  1  0.39639000  0.99613000  0.53317000  1.0
  H  H110  1  0.45869000  0.95398000  0.46188000  1.0
  H  H111  1  0.37968000  0.96539000  0.39344000  1.0
  H  H112  1  0.76463000  0.84630000  0.34682000  1.0
  H  H113  1  0.52157000  0.10933000  0.41429000  1.0
  H  H114  1  0.44581000  0.32289000  0.34200000  1.0
  H  H115  1  0.49139000  0.09593000  0.27483000  1.0
  H  H116  1  0.44105000  0.17387000  0.46633000  1.0
  H  H117  1  0.50387000  0.39639000  0.53317000  1.0
  H  H118  1  0.54602000  0.45869000  0.46188000  1.0
  H  H119  1  0.53461000  0.37968000  0.39344000  1.0
  H  H120  1  0.65370000  0.76463000  0.34682000  1.0
  H  H121  1  0.97842000  0.39067000  0.41429000  1.0
  H  H122  1  0.05419000  0.17711000  0.34200000  1.0
  H  H123  1  0.00861000  0.40407000  0.27483000  1.0
  H  H124  1  0.05895000  0.32613000  0.46633000  1.0
  H  H125  1  0.99613000  0.10361000  0.53317000  1.0
  H  H126  1  0.95398000  0.04131000  0.46188000  1.0
  H  H127  1  0.96539000  0.12032000  0.39344000  1.0
  H  H128  1  0.84630000  0.73537000  0.34682000  1.0
  C  C1  1  0.40584000  0.99214000  0.84480000  1.0
  C  C2  1  0.36070000  0.99524000  0.88380000  1.0
  C  C3  1  0.27756000  0.01623000  0.88365000  1.0
  C  C4  1  0.24110000  0.03643000  0.84348000  1.0
  C  C5  1  0.28639000  0.03522000  0.80443000  1.0
  C  C6  1  0.36872000  0.01230000  0.80491000  1.0
  C  C7  1  0.24522000  0.05819000  0.76280000  1.0
  C  C8  1  0.22907000  0.01334000  0.92460000  1.0
  C  C9  1  0.26392000  0.03573000  0.96485000  1.0
  C  C10  1  0.21855000  0.03040000  0.00377000  1.0
  C  C11  1  0.13788000  0.00153000  0.00276000  1.0
  C  C12  1  0.10296000  0.97863000  0.96292000  1.0
  C  C13  1  0.14795000  0.98489000  0.92417000  1.0
  C  C14  1  0.25702000  0.05541000  0.04577000  1.0
  C  C15  1  0.49260000  0.96360000  0.84571000  1.0
  C  C16  1  0.09416000  0.50785000  0.84480000  1.0
  C  C17  1  0.13930000  0.50476000  0.88380000  1.0
  C  C18  1  0.22244000  0.48377000  0.88365000  1.0
  C  C19  1  0.25890000  0.46357000  0.84348000  1.0
  C  C20  1  0.21361000  0.46478000  0.80443000  1.0
  C  C21  1  0.13128000  0.48770000  0.80491000  1.0
  C  C22  1  0.25478000  0.44181000  0.76280000  1.0
  C  C23  1  0.27093000  0.48666000  0.92460000  1.0
  C  C24  1  0.23608000  0.46427000  0.96485000  1.0
  C  C25  1  0.28145000  0.46960000  0.00377000  1.0
  C  C26  1  0.36212000  0.49847000  0.00276000  1.0
  C  C27  1  0.39704000  0.52137000  0.96292000  1.0
  C  C28  1  0.35205000  0.51511000  0.92417000  1.0
  C  C29  1  0.24298000  0.44459000  0.04577000  1.0
  C  C30  1  0.00740000  0.53640000  0.84571000  1.0
  C  C31  1  0.50785000  0.40584000  0.84480000  1.0
  C  C32  1  0.50476000  0.36070000  0.88380000  1.0
  C  C33  1  0.48377000  0.27756000  0.88365000  1.0
  C  C34  1  0.46357000  0.24110000  0.84348000  1.0
  C  C35  1  0.46478000  0.28639000  0.80443000  1.0
  C  C36  1  0.48770000  0.36872000  0.80491000  1.0
  C  C37  1  0.44181000  0.24522000  0.76280000  1.0
  C  C38  1  0.48666000  0.22907000  0.92460000  1.0
  C  C39  1  0.46427000  0.26392000  0.96485000  1.0
  C  C40  1  0.46960000  0.21855000  0.00377000  1.0
  C  C41  1  0.49847000  0.13788000  0.00276000  1.0
  C  C42  1  0.52137000  0.10296000  0.96292000  1.0
  C  C43  1  0.51511000  0.14795000  0.92417000  1.0
  C  C44  1  0.44459000  0.25702000  0.04577000  1.0
  C  C45  1  0.53640000  0.49260000  0.84571000  1.0
  C  C46  1  0.99214000  0.09416000  0.84480000  1.0
  C  C47  1  0.99524000  0.13930000  0.88380000  1.0
  C  C48  1  0.01623000  0.22243000  0.88365000  1.0
  C  C49  1  0.03643000  0.25890000  0.84348000  1.0
  C  C50  1  0.03522000  0.21361000  0.80443000  1.0
  C  C51  1  0.01230000  0.13128000  0.80491000  1.0
  C  C52  1  0.05819000  0.25478000  0.76280000  1.0
  C  C53  1  0.01334000  0.27093000  0.92460000  1.0
  C  C54  1  0.03573000  0.23608000  0.96485000  1.0
  C  C55  1  0.03040000  0.28145000  0.00377000  1.0
  C  C56  1  0.00153000  0.36212000  0.00276000  1.0
  C  C57  1  0.97863000  0.39704000  0.96292000  1.0
  C  C58  1  0.98489000  0.35205000  0.92417000  1.0
  C  C59  1  0.05541000  0.24298000  0.04577000  1.0
  C  C60  1  0.96360000  0.00740000  0.84571000  1.0
  C  C61  1  0.59416000  0.49214000  0.65520000  1.0
  C  C62  1  0.63930000  0.49524000  0.61620000  1.0
  C  C63  1  0.72243000  0.51623000  0.61635000  1.0
  C  C64  1  0.75890000  0.53643000  0.65652000  1.0
  C  C65  1  0.71361000  0.53521000  0.69558000  1.0
  C  C66  1  0.63128000  0.51230000  0.69509000  1.0
  C  C67  1  0.75478000  0.55819000  0.73721000  1.0
  C  C68  1  0.77093000  0.51334000  0.57540000  1.0
  C  C69  1  0.73608000  0.53573000  0.53516000  1.0
  C  C70  1  0.78145000  0.53040000  0.49624000  1.0
  C  C71  1  0.86212000  0.50153000  0.49724000  1.0
  C  C72  1  0.89704000  0.47863000  0.53709000  1.0
  C  C73  1  0.85205000  0.48489000  0.57584000  1.0
  C  C74  1  0.74298000  0.55541000  0.45423000  1.0
  C  C75  1  0.50740000  0.46360000  0.65430000  1.0
  C  C76  1  0.90583000  0.00786000  0.65520000  1.0
  C  C77  1  0.86070000  0.00476000  0.61620000  1.0
  C  C78  1  0.77756000  0.98377000  0.61635000  1.0
  C  C79  1  0.74110000  0.96357000  0.65652000  1.0
  C  C80  1  0.78639000  0.96478000  0.69558000  1.0
  C  C81  1  0.86872000  0.98770000  0.69509000  1.0
  C  C82  1  0.74522000  0.94181000  0.73721000  1.0
  C  C83  1  0.72907000  0.98666000  0.57540000  1.0
  C  C84  1  0.76392000  0.96427000  0.53516000  1.0
  C  C85  1  0.71855000  0.96960000  0.49624000  1.0
  C  C86  1  0.63788000  0.99847000  0.49724000  1.0
  C  C87  1  0.60296000  0.02137000  0.53709000  1.0
  C  C88  1  0.64795000  0.01511000  0.57584000  1.0
  C  C89  1  0.75702000  0.94459000  0.45423000  1.0
  C  C90  1  0.99260000  0.03640000  0.65430000  1.0
  C  C91  1  0.49214000  0.90583000  0.65520000  1.0
  C  C92  1  0.49524000  0.86070000  0.61620000  1.0
  C  C93  1  0.51623000  0.77756000  0.61635000  1.0
  C  C94  1  0.53643000  0.74110000  0.65652000  1.0
  C  C95  1  0.53521000  0.78639000  0.69558000  1.0
  C  C96  1  0.51230000  0.86872000  0.69509000  1.0
  C  C97  1  0.55819000  0.74522000  0.73721000  1.0
  C  C98  1  0.51334000  0.72907000  0.57540000  1.0
  C  C99  1  0.53573000  0.76392000  0.53516000  1.0
  C  C100  1  0.53040000  0.71855000  0.49624000  1.0
  C  C101  1  0.50153000  0.63788000  0.49724000  1.0
  C  C102  1  0.47863000  0.60296000  0.53709000  1.0
  C  C103  1  0.48489000  0.64795000  0.57584000  1.0
  C  C104  1  0.55541000  0.75702000  0.45423000  1.0
  C  C105  1  0.46360000  0.99260000  0.65430000  1.0
  C  C106  1  0.00786000  0.59416000  0.65520000  1.0
  C  C107  1  0.00476000  0.63930000  0.61620000  1.0
  C  C108  1  0.98377000  0.72243000  0.61635000  1.0
  C  C109  1  0.96357000  0.75890000  0.65652000  1.0
  C  C110  1  0.96478000  0.71361000  0.69558000  1.0
  C  C111  1  0.98770000  0.63128000  0.69509000  1.0
  C  C112  1  0.94181000  0.75478000  0.73721000  1.0
  C  C113  1  0.98666000  0.77093000  0.57540000  1.0
  C  C114  1  0.96427000  0.73608000  0.53516000  1.0
  C  C115  1  0.96960000  0.78145000  0.49624000  1.0
  C  C116  1  0.99847000  0.86212000  0.49724000  1.0
  C  C117  1  0.02137000  0.89704000  0.53709000  1.0
  C  C118  1  0.01511000  0.85205000  0.57584000  1.0
  C  C119  1  0.94459000  0.74298000  0.45423000  1.0
  C  C120  1  0.03640000  0.50740000  0.65430000  1.0
  C  C121  1  0.59416000  0.00786000  0.15520000  1.0
  C  C122  1  0.63930000  0.00476000  0.11620000  1.0
  C  C123  1  0.72243000  0.98377000  0.11635000  1.0
  C  C124  1  0.75890000  0.96357000  0.15652000  1.0
  C  C125  1  0.71361000  0.96478000  0.19558000  1.0
  C  C126  1  0.63128000  0.98770000  0.19509000  1.0
  C  C127  1  0.75478000  0.94181000  0.23721000  1.0
  C  C128  1  0.77093000  0.98666000  0.07540000  1.0
  C  C129  1  0.73608000  0.96427000  0.03516000  1.0
  C  C130  1  0.78145000  0.96960000  0.99624000  1.0
  C  C131  1  0.86212000  0.99847000  0.99724000  1.0
  C  C132  1  0.89704000  0.02137000  0.03709000  1.0
  C  C133  1  0.85205000  0.01511000  0.07584000  1.0
  C  C134  1  0.74298000  0.94459000  0.95423000  1.0
  C  C135  1  0.50740000  0.03640000  0.15430000  1.0
  C  C136  1  0.90583000  0.49214000  0.15520000  1.0
  C  C137  1  0.86070000  0.49524000  0.11620000  1.0
  C  C138  1  0.77756000  0.51623000  0.11635000  1.0
  C  C139  1  0.74110000  0.53643000  0.15652000  1.0
  C  C140  1  0.78639000  0.53521000  0.19558000  1.0
  C  C141  1  0.86872000  0.51230000  0.19509000  1.0
  C  C142  1  0.74522000  0.55819000  0.23721000  1.0
  C  C143  1  0.72907000  0.51334000  0.07540000  1.0
  C  C144  1  0.76392000  0.53573000  0.03516000  1.0
  C  C145  1  0.71855000  0.53040000  0.99624000  1.0
  C  C146  1  0.63788000  0.50153000  0.99724000  1.0
  C  C147  1  0.60296000  0.47863000  0.03709000  1.0
  C  C148  1  0.64795000  0.48489000  0.07584000  1.0
  C  C149  1  0.75702000  0.55541000  0.95423000  1.0
  C  C150  1  0.99260000  0.46360000  0.15430000  1.0
  C  C151  1  0.49214000  0.59416000  0.15520000  1.0
  C  C152  1  0.49524000  0.63930000  0.11620000  1.0
  C  C153  1  0.51623000  0.72243000  0.11635000  1.0
  C  C154  1  0.53643000  0.75890000  0.15652000  1.0
  C  C155  1  0.53521000  0.71361000  0.19558000  1.0
  C  C156  1  0.51230000  0.63128000  0.19509000  1.0
  C  C157  1  0.55819000  0.75478000  0.23721000  1.0
  C  C158  1  0.51334000  0.77093000  0.07540000  1.0
  C  C159  1  0.53573000  0.73608000  0.03516000  1.0
  C  C160  1  0.53040000  0.78145000  0.99624000  1.0
  C  C161  1  0.50153000  0.86212000  0.99724000  1.0
  C  C162  1  0.47863000  0.89704000  0.03709000  1.0
  C  C163  1  0.48489000  0.85205000  0.07584000  1.0
  C  C164  1  0.55541000  0.74298000  0.95423000  1.0
  C  C165  1  0.46360000  0.50740000  0.15430000  1.0
  C  C166  1  0.00786000  0.90583000  0.15520000  1.0
  C  C167  1  0.00476000  0.86070000  0.11620000  1.0
  C  C168  1  0.98377000  0.77756000  0.11635000  1.0
  C  C169  1  0.96357000  0.74110000  0.15652000  1.0
  C  C170  1  0.96478000  0.78639000  0.19558000  1.0
  C  C171  1  0.98770000  0.86872000  0.19509000  1.0
  C  C172  1  0.94181000  0.74522000  0.23721000  1.0
  C  C173  1  0.98666000  0.72907000  0.07540000  1.0
  C  C174  1  0.96427000  0.76392000  0.03516000  1.0
  C  C175  1  0.96960000  0.71855000  0.99624000  1.0
  C  C176  1  0.99847000  0.63788000  0.99724000  1.0
  C  C177  1  0.02137000  0.60296000  0.03709000  1.0
  C  C178  1  0.01511000  0.64795000  0.07584000  1.0
  C  C179  1  0.94459000  0.75702000  0.95423000  1.0
  C  C180  1  0.03640000  0.99260000  0.15430000  1.0
  C  C181  1  0.40584000  0.50785000  0.34480000  1.0
  C  C182  1  0.36070000  0.50476000  0.38380000  1.0
  C  C183  1  0.27756000  0.48377000  0.38365000  1.0
  C  C184  1  0.24110000  0.46357000  0.34348000  1.0
  C  C185  1  0.28639000  0.46478000  0.30443000  1.0
  C  C186  1  0.36872000  0.48770000  0.30491000  1.0
  C  C187  1  0.24522000  0.44181000  0.26279000  1.0
  C  C188  1  0.22907000  0.48666000  0.42460000  1.0
  C  C189  1  0.26392000  0.46427000  0.46485000  1.0
  C  C190  1  0.21855000  0.46960000  0.50377000  1.0
  C  C191  1  0.13788000  0.49847000  0.50276000  1.0
  C  C192  1  0.10296000  0.52137000  0.46291000  1.0
  C  C193  1  0.14795000  0.51511000  0.42417000  1.0
  C  C194  1  0.25702000  0.44459000  0.54577000  1.0
  C  C195  1  0.49260000  0.53640000  0.34571000  1.0
  C  C196  1  0.09416000  0.99214000  0.34480000  1.0
  C  C197  1  0.13930000  0.99524000  0.38380000  1.0
  C  C198  1  0.22243000  0.01623000  0.38365000  1.0
  C  C199  1  0.25890000  0.03643000  0.34348000  1.0
  C  C200  1  0.21361000  0.03522000  0.30443000  1.0
  C  C201  1  0.13128000  0.01230000  0.30491000  1.0
  C  C202  1  0.25478000  0.05819000  0.26279000  1.0
  C  C203  1  0.27093000  0.01334000  0.42460000  1.0
  C  C204  1  0.23608000  0.03573000  0.46485000  1.0
  C  C205  1  0.28145000  0.03040000  0.50377000  1.0
  C  C206  1  0.36212000  0.00153000  0.50276000  1.0
  C  C207  1  0.39704000  0.97863000  0.46291000  1.0
  C  C208  1  0.35205000  0.98489000  0.42417000  1.0
  C  C209  1  0.24298000  0.05541000  0.54577000  1.0
  C  C210  1  0.00740000  0.96360000  0.34571000  1.0
  C  C211  1  0.50785000  0.09416000  0.34480000  1.0
  C  C212  1  0.50476000  0.13930000  0.38380000  1.0
  C  C213  1  0.48377000  0.22243000  0.38365000  1.0
  C  C214  1  0.46357000  0.25890000  0.34348000  1.0
  C  C215  1  0.46478000  0.21361000  0.30443000  1.0
  C  C216  1  0.48770000  0.13128000  0.30491000  1.0
  C  C217  1  0.44181000  0.25478000  0.26279000  1.0
  C  C218  1  0.48666000  0.27093000  0.42460000  1.0
  C  C219  1  0.46427000  0.23608000  0.46485000  1.0
  C  C220  1  0.46960000  0.28145000  0.50377000  1.0
  C  C221  1  0.49847000  0.36212000  0.50276000  1.0
  C  C222  1  0.52137000  0.39704000  0.46291000  1.0
  C  C223  1  0.51511000  0.35205000  0.42417000  1.0
  C  C224  1  0.44459000  0.24298000  0.54577000  1.0
  C  C225  1  0.53640000  0.00740000  0.34571000  1.0
  C  C226  1  0.99214000  0.40584000  0.34480000  1.0
  C  C227  1  0.99524000  0.36070000  0.38380000  1.0
  C  C228  1  0.01623000  0.27756000  0.38365000  1.0
  C  C229  1  0.03643000  0.24110000  0.34348000  1.0
  C  C230  1  0.03522000  0.28639000  0.30443000  1.0
  C  C231  1  0.01230000  0.36872000  0.30491000  1.0
  C  C232  1  0.05819000  0.24522000  0.26279000  1.0
  C  C233  1  0.01334000  0.22907000  0.42460000  1.0
  C  C234  1  0.03573000  0.26392000  0.46485000  1.0
  C  C235  1  0.03040000  0.21855000  0.50377000  1.0
  C  C236  1  0.00153000  0.13788000  0.50276000  1.0
  C  C237  1  0.97863000  0.10296000  0.46291000  1.0
  C  C238  1  0.98489000  0.14795000  0.42417000  1.0
  C  C239  1  0.05541000  0.25702000  0.54577000  1.0
  C  C240  1  0.96360000  0.49260000  0.34571000  1.0
  O  O1  1  0.28518000  0.07924000  0.72872000  1.0
  O  O2  1  0.16684000  0.05635000  0.76207000  1.0
  O  O3  1  0.33560000  0.05993000  0.04661000  1.0
  O  O4  1  0.21509000  0.07133000  0.07991000  1.0
  O  O5  1  0.67460000  0.84522000  0.84644000  1.0
  O  O6  1  0.52771000  0.95259000  0.80887000  1.0
  O  O7  1  0.52439000  0.95230000  0.88358000  1.0
  O  O8  1  0.21481000  0.42076000  0.72872000  1.0
  O  O9  1  0.33316000  0.44365000  0.76207000  1.0
  O  O10  1  0.16440000  0.44007000  0.04661000  1.0
  O  O11  1  0.28491000  0.42867000  0.07991000  1.0
  O  O12  1  0.82540000  0.65477000  0.84644000  1.0
  O  O13  1  0.97229000  0.54741000  0.80887000  1.0
  O  O14  1  0.97561000  0.54770000  0.88358000  1.0
  O  O15  1  0.42076000  0.28518000  0.72872000  1.0
  O  O16  1  0.44365000  0.16684000  0.76207000  1.0
  O  O17  1  0.44007000  0.33560000  0.04661000  1.0
  O  O18  1  0.42867000  0.21509000  0.07991000  1.0
  O  O19  1  0.65477000  0.67459000  0.84644000  1.0
  O  O20  1  0.54741000  0.52771000  0.80887000  1.0
  O  O21  1  0.54770000  0.52439000  0.88358000  1.0
  O  O22  1  0.07924000  0.21481000  0.72872000  1.0
  O  O23  1  0.05635000  0.33316000  0.76207000  1.0
  O  O24  1  0.05993000  0.16440000  0.04661000  1.0
  O  O25  1  0.07133000  0.28491000  0.07991000  1.0
  O  O26  1  0.84522000  0.82540000  0.84644000  1.0
  O  O27  1  0.95259000  0.97229000  0.80887000  1.0
  O  O28  1  0.95230000  0.97561000  0.88358000  1.0
  O  O29  1  0.71481000  0.57924000  0.77128000  1.0
  O  O30  1  0.83316000  0.55635000  0.73793000  1.0
  O  O31  1  0.66440000  0.55993000  0.45339000  1.0
  O  O32  1  0.78491000  0.57133000  0.42009000  1.0
  O  O33  1  0.32540000  0.34522000  0.65357000  1.0
  O  O34  1  0.47229000  0.45259000  0.69113000  1.0
  O  O35  1  0.47561000  0.45230000  0.61643000  1.0
  O  O36  1  0.78518000  0.92076000  0.77128000  1.0
  O  O37  1  0.66684000  0.94365000  0.73793000  1.0
  O  O38  1  0.83560000  0.94007000  0.45339000  1.0
  O  O39  1  0.71508000  0.92867000  0.42009000  1.0
  O  O40  1  0.17460000  0.15478000  0.65357000  1.0
  O  O41  1  0.02771000  0.04741000  0.69113000  1.0
  O  O42  1  0.02439000  0.04770000  0.61643000  1.0
  O  O43  1  0.57924000  0.78518000  0.77128000  1.0
  O  O44  1  0.55635000  0.66684000  0.73793000  1.0
  O  O45  1  0.55993000  0.83560000  0.45339000  1.0
  O  O46  1  0.57133000  0.71508000  0.42009000  1.0
  O  O47  1  0.34522000  0.17460000  0.65357000  1.0
  O  O48  1  0.45259000  0.02771000  0.69113000  1.0
  O  O49  1  0.45230000  0.02439000  0.61643000  1.0
  O  O50  1  0.92076000  0.71481000  0.77128000  1.0
  O  O51  1  0.94365000  0.83316000  0.73793000  1.0
  O  O52  1  0.94007000  0.66440000  0.45339000  1.0
  O  O53  1  0.92867000  0.78491000  0.42009000  1.0
  O  O54  1  0.15478000  0.32540000  0.65357000  1.0
  O  O55  1  0.04741000  0.47229000  0.69113000  1.0
  O  O56  1  0.04770000  0.47561000  0.61643000  1.0
  O  O57  1  0.71481000  0.92076000  0.27128000  1.0
  O  O58  1  0.83316000  0.94365000  0.23793000  1.0
  O  O59  1  0.66440000  0.94007000  0.95339000  1.0
  O  O60  1  0.78491000  0.92867000  0.92010000  1.0
  O  O61  1  0.32540000  0.15478000  0.15357000  1.0
  O  O62  1  0.47229000  0.04741000  0.19113000  1.0
  O  O63  1  0.47561000  0.04770000  0.11643000  1.0
  O  O64  1  0.78518000  0.57924000  0.27128000  1.0
  O  O65  1  0.66684000  0.55635000  0.23793000  1.0
  O  O66  1  0.83560000  0.55993000  0.95339000  1.0
  O  O67  1  0.71508000  0.57133000  0.92010000  1.0
  O  O68  1  0.17460000  0.34522000  0.15357000  1.0
  O  O69  1  0.02771000  0.45259000  0.19113000  1.0
  O  O70  1  0.02439000  0.45230000  0.11643000  1.0
  O  O71  1  0.57924000  0.71481000  0.27128000  1.0
  O  O72  1  0.55635000  0.83316000  0.23793000  1.0
  O  O73  1  0.55993000  0.66440000  0.95339000  1.0
  O  O74  1  0.57133000  0.78491000  0.92010000  1.0
  O  O75  1  0.34522000  0.32540000  0.15357000  1.0
  O  O76  1  0.45259000  0.47229000  0.19113000  1.0
  O  O77  1  0.45230000  0.47561000  0.11643000  1.0
  O  O78  1  0.92076000  0.78518000  0.27128000  1.0
  O  O79  1  0.94365000  0.66684000  0.23793000  1.0
  O  O80  1  0.94007000  0.83560000  0.95339000  1.0
  O  O81  1  0.92867000  0.71508000  0.92010000  1.0
  O  O82  1  0.15478000  0.17460000  0.15357000  1.0
  O  O83  1  0.04741000  0.02771000  0.19113000  1.0
  O  O84  1  0.04770000  0.02439000  0.11643000  1.0
  O  O85  1  0.28518000  0.42076000  0.22872000  1.0
  O  O86  1  0.16684000  0.44365000  0.26207000  1.0
  O  O87  1  0.33560000  0.44007000  0.54661000  1.0
  O  O88  1  0.21509000  0.42867000  0.57991000  1.0
  O  O89  1  0.67460000  0.65477000  0.34644000  1.0
  O  O90  1  0.52771000  0.54741000  0.30887000  1.0
  O  O91  1  0.52439000  0.54770000  0.38357000  1.0
  O  O92  1  0.21481000  0.07924000  0.22872000  1.0
  O  O93  1  0.33316000  0.05635000  0.26207000  1.0
  O  O94  1  0.16440000  0.05993000  0.54661000  1.0
  O  O95  1  0.28491000  0.07133000  0.57991000  1.0
  O  O96  1  0.82540000  0.84522000  0.34644000  1.0
  O  O97  1  0.97229000  0.95259000  0.30887000  1.0
  O  O98  1  0.97561000  0.95230000  0.38357000  1.0
  O  O99  1  0.42076000  0.21481000  0.22872000  1.0
  O  O100  1  0.44365000  0.33316000  0.26207000  1.0
  O  O101  1  0.44007000  0.16440000  0.54661000  1.0
  O  O102  1  0.42867000  0.28491000  0.57991000  1.0
  O  O103  1  0.65477000  0.82540000  0.34644000  1.0
  O  O104  1  0.54741000  0.97229000  0.30887000  1.0
  O  O105  1  0.54770000  0.97561000  0.38357000  1.0
  O  O106  1  0.07924000  0.28518000  0.22872000  1.0
  O  O107  1  0.05635000  0.16684000  0.26207000  1.0
  O  O108  1  0.05993000  0.33560000  0.54661000  1.0
  O  O109  1  0.07133000  0.21509000  0.57991000  1.0
  O  O110  1  0.84522000  0.67459000  0.34644000  1.0
  O  O111  1  0.95259000  0.52771000  0.30887000  1.0
  O  O112  1  0.95230000  0.52439000  0.38357000  1.0
