# generated using pymatgen
data_Cd5H36C54N18(ClO3)4
_symmetry_space_group_name_H-M   'P 1'
_cell_length_a   13.04768000
_cell_length_b   17.33045000
_cell_length_c   22.28753000
_cell_angle_alpha   70.96878000
_cell_angle_beta   76.55735000
_cell_angle_gamma   73.15533000
_symmetry_Int_Tables_number   1
_chemical_formula_structural   Cd5H36C54N18(ClO3)4
_chemical_formula_sum   'Cd10 H72 C108 N36 Cl8 O24'
_cell_volume   4506.48937475
_cell_formula_units_Z   2
loop_
 _symmetry_equiv_pos_site_id
 _symmetry_equiv_pos_as_xyz
  1  'x, y, z'
loop_
 _atom_site_type_symbol
 _atom_site_label
 _atom_site_symmetry_multiplicity
 _atom_site_fract_x
 _atom_site_fract_y
 _atom_site_fract_z
 _atom_site_occupancy
  Cd  Cd0  1  0.17476000  0.54674000  0.01459000  1
  Cd  Cd1  1  0.17924000  0.73419000  0.08937000  1
  Cd  Cd2  1  0.17526000  0.77533000  0.24897000  1
  Cd  Cd3  1  0.18013000  0.80462000  0.41075000  1
  Cd  Cd4  1  0.16756000  0.00186000  0.48461000  1
  Cd  Cd5  1  0.82523000  0.45326000  0.98541000  1
  Cd  Cd6  1  0.82076000  0.26581000  0.91063000  1
  Cd  Cd7  1  0.82473000  0.22467000  0.75103000  1
  Cd  Cd8  1  0.81986000  0.19538000  0.58925000  1
  Cd  Cd9  1  0.83243000  0.99814000  0.51539000  1
  H  H10  1  0.11111000  0.54111000  0.61876000  1
  H  H11  1  0.19927000  0.77342000  0.57051000  1
  H  H12  1  0.08766000  0.76829000  0.68018000  1
  H  H13  1  0.09213000  0.74345000  0.79668000  1
  H  H14  1  0.24844000  0.48485000  0.81362000  1
  H  H15  1  0.24511000  0.50852000  0.69694000  1
  H  H16  1  0.89067000  0.56930000  0.06000000  1
  H  H17  1  0.88704000  0.77498000  0.12506000  1
  H  H18  1  0.71780000  0.70225000  0.20390000  1
  H  H19  1  0.51389000  0.74083000  0.21779000  1
  H  H20  1  0.52480000  0.72910000  0.02725000  1
  H  H21  1  0.72875000  0.69456000  0.01109000  1
  H  H22  1  0.20092000  0.50427000  0.16932000  1
  H  H23  1  0.15301000  0.56880000  0.34419000  1
  H  H24  1  0.23959000  0.42377000  0.38251000  1
  H  H25  1  0.23147000  0.27514000  0.44251000  1
  H  H26  1  0.09263000  0.25780000  0.29276000  1
  H  H27  1  0.09559000  0.40700000  0.23266000  1
  H  H28  1  0.16849000  0.04139000  0.32883000  1
  H  H29  1  0.18332000  0.98689000  0.15394000  1
  H  H30  1  0.05357000  0.13630000  0.13998000  1
  H  H31  1  0.04622000  0.28742000  0.08091000  1
  H  H32  1  0.28455000  0.28922000  0.18404000  1
  H  H33  1  0.29338000  0.13715000  0.24417000  1
  H  H34  1  0.88070000  0.80168000  0.27696000  1
  H  H35  1  0.88286000  0.82742000  0.45986000  1
  H  H36  1  0.71245000  0.92960000  0.43172000  1
  H  H37  1  0.50908000  0.95863000  0.45274000  1
  H  H38  1  0.51705000  0.77057000  0.36441000  1
  H  H39  1  0.72067000  0.74079000  0.34251000  1
  H  H40  1  0.11055000  0.01924000  0.89508000  1
  H  H41  1  0.18585000  0.75474000  0.92955000  1
  H  H42  1  0.04620000  0.01601000  0.80351000  1
  H  H43  1  0.06796000  0.02824000  0.68626000  1
  H  H44  1  0.30823000  0.79672000  0.71012000  1
  H  H45  1  0.29214000  0.78447000  0.82709000  1
  H  H46  1  0.88889000  0.45889000  0.38123000  1
  H  H47  1  0.80072000  0.22657000  0.42948000  1
  H  H48  1  0.91233000  0.23171000  0.31982000  1
  H  H49  1  0.90787000  0.25655000  0.20332000  1
  H  H50  1  0.75155000  0.51515000  0.18638000  1
  H  H51  1  0.75488000  0.49148000  0.30306000  1
  H  H52  1  0.10932000  0.43070000  0.94000000  1
  H  H53  1  0.11295000  0.22502000  0.87494000  1
  H  H54  1  0.28220000  0.29775000  0.79610000  1
  H  H55  1  0.48610000  0.25917000  0.78221000  1
  H  H56  1  0.47519000  0.27090000  0.97275000  1
  H  H57  1  0.27124000  0.30544000  0.98891000  1
  H  H58  1  0.79908000  0.49573000  0.83067000  1
  H  H59  1  0.84699000  0.43120000  0.65581000  1
  H  H60  1  0.76040000  0.57623000  0.61749000  1
  H  H61  1  0.76852000  0.72486000  0.55749000  1
  H  H62  1  0.90736000  0.74220000  0.70724000  1
  H  H63  1  0.90440000  0.59300000  0.76734000  1
  H  H64  1  0.83150000  0.95861000  0.67117000  1
  H  H65  1  0.81667000  0.01311000  0.84606000  1
  H  H66  1  0.94643000  0.86370000  0.86002000  1
  H  H67  1  0.95377000  0.71258000  0.91909000  1
  H  H68  1  0.71544000  0.71078000  0.81596000  1
  H  H69  1  0.70662000  0.86285000  0.75582000  1
  H  H70  1  0.11929000  0.19832000  0.72304000  1
  H  H71  1  0.11713000  0.17258000  0.54014000  1
  H  H72  1  0.28754000  0.07040000  0.56828000  1
  H  H73  1  0.49092000  0.04137000  0.54726000  1
  H  H74  1  0.48294000  0.22943000  0.63559000  1
  H  H75  1  0.27933000  0.25921000  0.65749000  1
  H  H76  1  0.88944000  0.98076000  0.10492000  1
  H  H77  1  0.81414000  0.24526000  0.07045000  1
  H  H78  1  0.95379000  0.98399000  0.19649000  1
  H  H79  1  0.93203000  0.97176000  0.31374000  1
  H  H80  1  0.69176000  0.20328000  0.28987000  1
  H  H81  1  0.70785000  0.21553000  0.17291000  1
  C  C82  1  0.13286000  0.59952000  0.59037000  1
  C  C83  1  0.17697000  0.71971000  0.56612000  1
  C  C84  1  0.16334000  0.63914000  0.68271000  1
  C  C85  1  0.12159000  0.70633000  0.70975000  1
  C  C86  1  0.12462000  0.69238000  0.77457000  1
  C  C87  1  0.16883000  0.61254000  0.81256000  1
  C  C88  1  0.21154000  0.54609000  0.78437000  1
  C  C89  1  0.20915000  0.55910000  0.71954000  1
  C  C90  1  0.17086000  0.59878000  0.88238000  1
  C  C91  1  0.91759000  0.61581000  0.07159000  1
  C  C92  1  0.91487000  0.72119000  0.10601000  1
  C  C93  1  0.73326000  0.69749000  0.10646000  1
  C  C94  1  0.67516000  0.71001000  0.16501000  1
  C  C95  1  0.56223000  0.73094000  0.17291000  1
  C  C96  1  0.50835000  0.73822000  0.12300000  1
  C  C97  1  0.56822000  0.72407000  0.06505000  1
  C  C98  1  0.68110000  0.70424000  0.05621000  1
  C  C99  1  0.38593000  0.75854000  0.13295000  1
  C  C100  1  0.18734000  0.54083000  0.20324000  1
  C  C101  1  0.16332000  0.57310000  0.29361000  1
  C  C102  1  0.16791000  0.42351000  0.30431000  1
  C  C103  1  0.20546000  0.38786000  0.36358000  1
  C  C104  1  0.20132000  0.30507000  0.39686000  1
  C  C105  1  0.16102000  0.25801000  0.37102000  1
  C  C106  1  0.12325000  0.29531000  0.31197000  1
  C  C107  1  0.12526000  0.37827000  0.27850000  1
  C  C108  1  0.16027000  0.16765000  0.40532000  1
  C  C109  1  0.17407000  0.00649000  0.29491000  1
  C  C110  1  0.17933000  0.97972000  0.20452000  1
  C  C111  1  0.17429000  0.12871000  0.19501000  1
  C  C112  1  0.10578000  0.16934000  0.14848000  1
  C  C113  1  0.10205000  0.25339000  0.11536000  1
  C  C114  1  0.16571000  0.29662000  0.12890000  1
  C  C115  1  0.23526000  0.25447000  0.17488000  1
  C  C116  1  0.24012000  0.17028000  0.20817000  1
  C  C117  1  0.15988000  0.38763000  0.09397000  1
  C  C118  1  0.90857000  0.80151000  0.31912000  1
  C  C119  1  0.91068000  0.81605000  0.41271000  1
  C  C120  1  0.72664000  0.83383000  0.38606000  1
  C  C121  1  0.66916000  0.89467000  0.41773000  1
  C  C122  1  0.55636000  0.91095000  0.42889000  1
  C  C123  1  0.50169000  0.86653000  0.40953000  1
  C  C124  1  0.56096000  0.80532000  0.37816000  1
  C  C125  1  0.67379000  0.78894000  0.36601000  1
  C  C126  1  0.37959000  0.88429000  0.42259000  1
  C  C127  1  0.12855000  0.95278000  0.91980000  1
  C  C128  1  0.16849000  0.81655000  0.93689000  1
  C  C129  1  0.16776000  0.89915000  0.82189000  1
  C  C130  1  0.10425000  0.96845000  0.78300000  1
  C  C131  1  0.11656000  0.97553000  0.71770000  1
  C  C132  1  0.18998000  0.91355000  0.69145000  1
  C  C133  1  0.25244000  0.84455000  0.73122000  1
  C  C134  1  0.24279000  0.83745000  0.79628000  1
  C  C135  1  0.20118000  0.92022000  0.62126000  1
  C  C136  1  0.86714000  0.40047000  0.40963000  1
  C  C137  1  0.82302000  0.28029000  0.43388000  1
  C  C138  1  0.83665000  0.36086000  0.31728000  1
  C  C139  1  0.87840000  0.29367000  0.29025000  1
  C  C140  1  0.87537000  0.30762000  0.22543000  1
  C  C141  1  0.83116000  0.38746000  0.18744000  1
  C  C142  1  0.78846000  0.45391000  0.21563000  1
  C  C143  1  0.79085000  0.44089000  0.28046000  1
  C  C144  1  0.82913000  0.40122000  0.11762000  1
  C  C145  1  0.08240000  0.38419000  0.92841000  1
  C  C146  1  0.08513000  0.27881000  0.89399000  1
  C  C147  1  0.26673000  0.30251000  0.89354000  1
  C  C148  1  0.32484000  0.28999000  0.83499000  1
  C  C149  1  0.43776000  0.26906000  0.82709000  1
  C  C150  1  0.49165000  0.26178000  0.87699000  1
  C  C151  1  0.43177000  0.27593000  0.93495000  1
  C  C152  1  0.31889000  0.29576000  0.94379000  1
  C  C153  1  0.61406000  0.24146000  0.86705000  1
  C  C154  1  0.81265000  0.45917000  0.79676000  1
  C  C155  1  0.83668000  0.42690000  0.70639000  1
  C  C156  1  0.83208000  0.57649000  0.69569000  1
  C  C157  1  0.79453000  0.61214000  0.63642000  1
  C  C158  1  0.79867000  0.69493000  0.60314000  1
  C  C159  1  0.83897000  0.74199000  0.62898000  1
  C  C160  1  0.87674000  0.70469000  0.68803000  1
  C  C161  1  0.87473000  0.62173000  0.72150000  1
  C  C162  1  0.83972000  0.83235000  0.59468000  1
  C  C163  1  0.82593000  0.99351000  0.70509000  1
  C  C164  1  0.82066000  0.02028000  0.79547000  1
  C  C165  1  0.82570000  0.87129000  0.80498000  1
  C  C166  1  0.89421000  0.83066000  0.85152000  1
  C  C167  1  0.89794000  0.74661000  0.88464000  1
  C  C168  1  0.83428000  0.70338000  0.87110000  1
  C  C169  1  0.76473000  0.74553000  0.82511000  1
  C  C170  1  0.75987000  0.82972000  0.79183000  1
  C  C171  1  0.84012000  0.61237000  0.90603000  1
  C  C172  1  0.09143000  0.19849000  0.68088000  1
  C  C173  1  0.08931000  0.18395000  0.58729000  1
  C  C174  1  0.27335000  0.16617000  0.61394000  1
  C  C175  1  0.33083000  0.10532000  0.58227000  1
  C  C176  1  0.44363000  0.08905000  0.57111000  1
  C  C177  1  0.49831000  0.13347000  0.59047000  1
  C  C178  1  0.43904000  0.19468000  0.62184000  1
  C  C179  1  0.32620000  0.21106000  0.63399000  1
  C  C180  1  0.62040000  0.11571000  0.57741000  1
  C  C181  1  0.87144000  0.04722000  0.08020000  1
  C  C182  1  0.83150000  0.18345000  0.06311000  1
  C  C183  1  0.83224000  0.10085000  0.17811000  1
  C  C184  1  0.89575000  0.03155000  0.21700000  1
  C  C185  1  0.88343000  0.02447000  0.28229000  1
  C  C186  1  0.81001000  0.08645000  0.30854000  1
  C  C187  1  0.74755000  0.15545000  0.26878000  1
  C  C188  1  0.75720000  0.16254000  0.20372000  1
  C  C189  1  0.79881000  0.07978000  0.37874000  1
  N  N190  1  0.13547000  0.63171000  0.52792000  1
  N  N191  1  0.16390000  0.70757000  0.51304000  1
  N  N192  1  0.15855000  0.65209000  0.61678000  1
  N  N193  1  0.01849000  0.62125000  0.06585000  1
  N  N194  1  0.01706000  0.68770000  0.08739000  1
  N  N195  1  0.84931000  0.67789000  0.09694000  1
  N  N196  1  0.18451000  0.62158000  0.18922000  1
  N  N197  1  0.16929000  0.64157000  0.24593000  1
  N  N198  1  0.17338000  0.50787000  0.26899000  1
  N  N199  1  0.17826000  0.90970000  0.25128000  1
  N  N200  1  0.17492000  0.92619000  0.30825000  1
  N  N201  1  0.17686000  0.04270000  0.22971000  1
  N  N202  1  0.01196000  0.79928000  0.38395000  1
  N  N203  1  0.01063000  0.79021000  0.32497000  1
  N  N204  1  0.84263000  0.81732000  0.37351000  1
  N  N205  1  0.12685000  0.91982000  0.98217000  1
  N  N206  1  0.15200000  0.83375000  0.99242000  1
  N  N207  1  0.15495000  0.89040000  0.88900000  1
  N  N208  1  0.86452000  0.36829000  0.47208000  1
  N  N209  1  0.83610000  0.29243000  0.48696000  1
  N  N210  1  0.84144000  0.34791000  0.38322000  1
  N  N211  1  0.98150000  0.37875000  0.93415000  1
  N  N212  1  0.98294000  0.31230000  0.91261000  1
  N  N213  1  0.15068000  0.32211000  0.90306000  1
  N  N214  1  0.81549000  0.37842000  0.81078000  1
  N  N215  1  0.83070000  0.35843000  0.75407000  1
  N  N216  1  0.82661000  0.49213000  0.73101000  1
  N  N217  1  0.82174000  0.09030000  0.74871000  1
  N  N218  1  0.82507000  0.07381000  0.69174000  1
  N  N219  1  0.82313000  0.95730000  0.77029000  1
  N  N220  1  0.98803000  0.20072000  0.61605000  1
  N  N221  1  0.98936000  0.20979000  0.67503000  1
  N  N222  1  0.15736000  0.18268000  0.62649000  1
  N  N223  1  0.87315000  0.08018000  0.01783000  1
  N  N224  1  0.84799000  0.16625000  0.00758000  1
  N  N225  1  0.84504000  0.10960000  0.11100000  1
  Cl  Cl226  1  0.30356000  0.61941000  0.03014000  1
  Cl  Cl227  1  0.04238000  0.83535000  0.15871000  1
  Cl  Cl228  1  0.27847000  0.69600000  0.34786000  1
  Cl  Cl229  1  0.05409000  0.91520000  0.47024000  1
  Cl  Cl230  1  0.69644000  0.38059000  0.96986000  1
  Cl  Cl231  1  0.95761000  0.16465000  0.84129000  1
  Cl  Cl232  1  0.72152000  0.30400000  0.65213000  1
  Cl  Cl233  1  0.94590000  0.08480000  0.52976000  1
  O  O234  1  0.20241000  0.52258000  0.91609000  1
  O  O235  1  0.14135000  0.66070000  0.90577000  1
  O  O236  1  0.34253000  0.75788000  0.08775000  1
  O  O237  1  0.33882000  0.77387000  0.18588000  1
  O  O238  1  0.19161000  0.13791000  0.46050000  1
  O  O239  1  0.13021000  0.12529000  0.37869000  1
  O  O240  1  0.21438000  0.42641000  0.10988000  1
  O  O241  1  0.10260000  0.42199000  0.04876000  1
  O  O242  1  0.33786000  0.82725000  0.42150000  1
  O  O243  1  0.33189000  0.95523000  0.43282000  1
  O  O244  1  0.23672000  0.85505000  0.60279000  1
  O  O245  1  0.17182000  0.99565000  0.58526000  1
  O  O246  1  0.79758000  0.47742000  0.08391000  1
  O  O247  1  0.85864000  0.33930000  0.09423000  1
  O  O248  1  0.65747000  0.24212000  0.91225000  1
  O  O249  1  0.66117000  0.22613000  0.81412000  1
  O  O250  1  0.80838000  0.86209000  0.53950000  1
  O  O251  1  0.86979000  0.87471000  0.62131000  1
  O  O252  1  0.78561000  0.57359000  0.89012000  1
  O  O253  1  0.89739000  0.57801000  0.95124000  1
  O  O254  1  0.66213000  0.17275000  0.57850000  1
  O  O255  1  0.66810000  0.04477000  0.56718000  1
  O  O256  1  0.76327000  0.14495000  0.39721000  1
  O  O257  1  0.82818000  0.00435000  0.41474000  1
