# generated using pymatgen
data_CoH16(C5N)4
_symmetry_space_group_name_H-M   'P 1'
_cell_length_a   14.07223909
_cell_length_b   14.11882000
_cell_length_c   14.25722000
_cell_angle_alpha   62.54665000
_cell_angle_beta   62.66592089
_cell_angle_gamma   93.97469636
_symmetry_Int_Tables_number   1
_chemical_formula_structural   CoH16(C5N)4
_chemical_formula_sum   'Co4 H64 C80 N16'
_cell_volume   2086.31371309
_cell_formula_units_Z   4
loop_
 _symmetry_equiv_pos_site_id
 _symmetry_equiv_pos_as_xyz
  1  'x, y, z'
loop_
 _atom_site_type_symbol
 _atom_site_label
 _atom_site_symmetry_multiplicity
 _atom_site_fract_x
 _atom_site_fract_y
 _atom_site_fract_z
 _atom_site_occupancy
  Co  Co0  1  0.88170000  0.11781000  0.25068000  1
  Co  Co1  1  0.61765000  0.36693000  0.76529000  1
  Co  Co2  1  0.13249000  0.86757000  0.74973000  1
  Co  Co3  1  0.36754000  0.61702000  0.26538000  1
  H  H4  1  0.83346000  0.92607000  0.21568000  1
  H  H5  1  0.78293000  0.90793000  0.07728000  1
  H  H6  1  0.80365000  0.08396000  0.89390000  1
  H  H7  1  0.90707000  0.27624000  0.01619000  1
  H  H8  1  0.64041000  0.04955000  0.28689000  1
  H  H9  1  0.48491000  0.86060000  0.42197000  1
  H  H10  1  0.47834000  0.69621000  0.60376000  1
  H  H11  1  0.78650000  0.92297000  0.49300000  1
  H  H12  1  0.54941000  0.33688000  0.59176000  1
  H  H13  1  0.35783000  0.28202000  0.62770000  1
  H  H14  1  0.19188000  0.29776000  0.78646000  1
  H  H15  1  0.42305000  0.41752000  0.86133000  1
  H  H16  1  0.42790000  0.14141000  0.90660000  1
  H  H17  1  0.40940000  0.98486000  0.87326000  1
  H  H18  1  0.58505000  0.97738000  0.71570000  1
  H  H19  1  0.77723000  0.28953000  0.63159000  1
  H  H20  1  0.85892000  0.57109000  0.59164000  1
  H  H21  1  0.01457000  0.59055000  0.62717000  1
  H  H22  1  0.02216000  0.41634000  0.78632000  1
  H  H23  1  0.71684000  0.22086000  0.86071000  1
  H  H24  1  0.66577000  0.45146000  0.90696000  1
  H  H25  1  0.71727000  0.64156000  0.87364000  1
  H  H26  1  0.69944000  0.80645000  0.71591000  1
  H  H27  1  0.59108000  0.57812000  0.63222000  1
  H  H28  1  0.07399000  0.16575000  0.28548000  1
  H  H29  1  0.09318000  0.21708000  0.42255000  1
  H  H30  1  0.91705000  0.19771000  0.60536000  1
  H  H31  1  0.72275000  0.09162000  0.48583000  1
  H  H32  1  0.94970000  0.35837000  0.21441000  1
  H  H33  1  0.13868000  0.51482000  0.07773000  1
  H  H34  1  0.30292000  0.52197000  0.89576000  1
  H  H35  1  0.07637000  0.21324000  0.00831000  1
  H  H36  1  0.16369000  0.07242000  0.78597000  1
  H  H37  1  0.21636000  0.09257000  0.92214000  1
  H  H38  1  0.19932000  0.91761000  0.10410000  1
  H  H39  1  0.08440000  0.72129000  0.99237000  1
  H  H40  1  0.35917000  0.95112000  0.71500000  1
  H  H41  1  0.51581000  0.13961000  0.57745000  1
  H  H42  1  0.52245000  0.30272000  0.39482000  1
  H  H43  1  0.20831000  0.07728000  0.51462000  1
  H  H44  1  0.45239000  0.66522000  0.40694000  1
  H  H45  1  0.64323000  0.71742000  0.37273000  1
  H  H46  1  0.80861000  0.70005000  0.21471000  1
  H  H47  1  0.57846000  0.59027000  0.13298000  1
  H  H48  1  0.57139000  0.85817000  0.09180000  1
  H  H49  1  0.59102000  0.01388000  0.12650000  1
  H  H50  1  0.41681000  0.02103000  0.28554000  1
  H  H51  1  0.22067000  0.71550000  0.36198000  1
  H  H52  1  0.14081000  0.42744000  0.40693000  1
  H  H53  1  0.98416000  0.40998000  0.37237000  1
  H  H54  1  0.97709000  0.58562000  0.21461000  1
  H  H55  1  0.28947000  0.77639000  0.13261000  1
  H  H56  1  0.33704000  0.54965000  0.09218000  1
  H  H57  1  0.28226000  0.35946000  0.12690000  1
  H  H58  1  0.29782000  0.19298000  0.28584000  1
  H  H59  1  0.41726000  0.42171000  0.36266000  1
  H  H60  1  0.92689000  0.83582000  0.71387000  1
  H  H61  1  0.90672000  0.78251000  0.57817000  1
  H  H62  1  0.08180000  0.80032000  0.39639000  1
  H  H63  1  0.27913000  0.91534000  0.50785000  1
  H  H64  1  0.04899000  0.64130000  0.78518000  1
  H  H65  1  0.86017000  0.48488000  0.92312000  1
  H  H66  1  0.69691000  0.47788000  0.10605000  1
  H  H67  1  0.92269000  0.79193000  0.98466000  1
  C  C68  1  0.83881000  0.00051000  0.13776000  1
  C  C69  1  0.81206000  0.99189000  0.05849000  1
  C  C70  1  0.82210000  0.08924000  0.95791000  1
  C  C71  1  0.85845000  0.19651000  0.93901000  1
  C  C72  1  0.88303000  0.19719000  0.02339000  1
  C  C73  1  0.63691000  0.97651000  0.36440000  1
  C  C74  1  0.55008000  0.87037000  0.44130000  1
  C  C75  1  0.54704000  0.77884000  0.54126000  1
  C  C76  1  0.63449000  0.79608000  0.56211000  1
  C  C77  1  0.71734000  0.90600000  0.48138000  1
  C  C78  1  0.47592000  0.34169000  0.66084000  1
  C  C79  1  0.36822000  0.31146000  0.68200000  1
  C  C80  1  0.27585000  0.31914000  0.77090000  1
  C  C81  1  0.29398000  0.35809000  0.83940000  1
  C  C82  1  0.40543000  0.38849000  0.81034000  1
  C  C83  1  0.50208000  0.13744000  0.83739000  1
  C  C84  1  0.49325000  0.04983000  0.81820000  1
  C  C85  1  0.59030000  0.04645000  0.72989000  1
  C  C86  1  0.69727000  0.13416000  0.65986000  1
  C  C87  1  0.69821000  0.21855000  0.68555000  1
  C  C88  1  0.86379000  0.49722000  0.66033000  1
  C  C89  1  0.95011000  0.50667000  0.68169000  1
  C  C90  1  0.95356000  0.41031000  0.77104000  1
  C  C91  1  0.86698000  0.30293000  0.83968000  1
  C  C92  1  0.78508000  0.30103000  0.81008000  1
  C  C93  1  0.66118000  0.52477000  0.83744000  1
  C  C94  1  0.68875000  0.63159000  0.81844000  1
  C  C95  1  0.67971000  0.72309000  0.73034000  1
  C  C96  1  0.64261000  0.70529000  0.66043000  1
  C  C97  1  0.61630000  0.59514000  0.68607000  1
  C  C98  1  0.99950000  0.16051000  0.36328000  1
  C  C99  1  0.00878000  0.18791000  0.44173000  1
  C  C100  1  0.91153000  0.17848000  0.54197000  1
  C  C101  1  0.80383000  0.14178000  0.56122000  1
  C  C102  1  0.80244000  0.11628000  0.47778000  1
  C  C103  1  0.02274000  0.36240000  0.13651000  1
  C  C104  1  0.12885000  0.44963000  0.05879000  1
  C  C105  1  0.22035000  0.45300000  0.95870000  1
  C  C106  1  0.20326000  0.36558000  0.93810000  1
  C  C107  1  0.09333000  0.28239000  0.01962000  1
  C  C108  1  0.15871000  0.99855000  0.86404000  1
  C  C109  1  0.18762000  0.00827000  0.94136000  1
  C  C110  1  0.17954000  0.91156000  0.04124000  1
  C  C111  1  0.14159000  0.80365000  0.06191000  1
  C  C112  1  0.11256000  0.80179000  0.98093000  1
  C  C113  1  0.36231000  0.02372000  0.63743000  1
  C  C114  1  0.45030000  0.12949000  0.55869000  1
  C  C115  1  0.45345000  0.22015000  0.45825000  1
  C  C116  1  0.36495000  0.20281000  0.43900000  1
  C  C117  1  0.27990000  0.09392000  0.52273000  1
  C  C118  1  0.52563000  0.66020000  0.33776000  1
  C  C119  1  0.63303000  0.68880000  0.31777000  1
  C  C120  1  0.72490000  0.68039000  0.22934000  1
  C  C121  1  0.70651000  0.64287000  0.16010000  1
  C  C122  1  0.59592000  0.61565000  0.18649000  1
  C  C123  1  0.49763000  0.86259000  0.16094000  1
  C  C124  1  0.50701000  0.94933000  0.18128000  1
  C  C125  1  0.41047000  0.95277000  0.27022000  1
  C  C126  1  0.30277000  0.86608000  0.33953000  1
  C  C127  1  0.30105000  0.78379000  0.31083000  1
  C  C128  1  0.13696000  0.50171000  0.33762000  1
  C  C129  1  0.04936000  0.49343000  0.31777000  1
  C  C130  1  0.04598000  0.59050000  0.22958000  1
  C  C131  1  0.13370000  0.69718000  0.16041000  1
  C  C132  1  0.21832000  0.69763000  0.18630000  1
  C  C133  1  0.34180000  0.47609000  0.16122000  1
  C  C134  1  0.31171000  0.36907000  0.18162000  1
  C  C135  1  0.31920000  0.27649000  0.27068000  1
  C  C136  1  0.35756000  0.29381000  0.33998000  1
  C  C137  1  0.38826000  0.40476000  0.31127000  1
  C  C138  1  0.00097000  0.84089000  0.63592000  1
  C  C139  1  0.99118000  0.81158000  0.55897000  1
  C  C140  1  0.08809000  0.81998000  0.45916000  1
  C  C141  1  0.19649000  0.85812000  0.43821000  1
  C  C142  1  0.19846000  0.88721000  0.51905000  1
  C  C143  1  0.97619000  0.63801000  0.86276000  1
  C  C144  1  0.87027000  0.55015000  0.94185000  1
  C  C145  1  0.77954000  0.54686000  0.04237000  1
  C  C146  1  0.79720000  0.63524000  0.06121000  1
  C  C147  1  0.90609000  0.72030000  0.97699000  1
  N  N148  1  0.87530000  0.10339000  0.12037000  1
  N  N149  1  0.72050000  0.99586000  0.38487000  1
  N  N150  1  0.49587000  0.38185000  0.72394000  1
  N  N151  1  0.60477000  0.22205000  0.77221000  1
  N  N152  1  0.78122000  0.39385000  0.72307000  1
  N  N153  1  0.62380000  0.50530000  0.77218000  1
  N  N154  1  0.89622000  0.12373000  0.38097000  1
  N  N155  1  0.00358000  0.27875000  0.11645000  1
  N  N156  1  0.11905000  0.89484000  0.88436000  1
  N  N157  1  0.27666000  0.00464000  0.61980000  1
  N  N158  1  0.50578000  0.62250000  0.27297000  1
  N  N159  1  0.39404000  0.77974000  0.22443000  1
  N  N160  1  0.22193000  0.60406000  0.27257000  1
  N  N161  1  0.38220000  0.49554000  0.22442000  1
  N  N162  1  0.10508000  0.88046000  0.61553000  1
  N  N163  1  0.99545000  0.72348000  0.88011000  1
