# generated using pymatgen
data_H7(C7N4)2
_symmetry_space_group_name_H-M   'P 1'
_cell_length_a   10.43893333
_cell_length_b   22.41550000
_cell_length_c   28.80340000
_cell_angle_alpha   90.00000000
_cell_angle_beta   90.00000000
_cell_angle_gamma   90.00000000
_symmetry_Int_Tables_number   1
_chemical_formula_structural   H7(C7N4)2
_chemical_formula_sum   'H56 C112 N64'
_cell_volume   6739.82019113
_cell_formula_units_Z   8
loop_
 _symmetry_equiv_pos_site_id
 _symmetry_equiv_pos_as_xyz
  1  'x, y, z'
loop_
 _atom_site_type_symbol
 _atom_site_label
 _atom_site_symmetry_multiplicity
 _atom_site_fract_x
 _atom_site_fract_y
 _atom_site_fract_z
 _atom_site_occupancy
  C  1  1  0.89558700  0.01046600  0.98176100  1
  C  2  1  0.86372900  0.95289800  0.99856100  1
  C  3  1  0.79892400  0.91087900  0.97092500  1
  C  4  1  0.77560700  0.92309700  0.92338300  1
  C  5  1  0.81791600  0.97864400  0.90480700  1
  C  6  1  0.86320600  0.02458800  0.93476900  1
  C  9  1  0.97498000  0.04769800  0.00993100  1
  C  10  1  0.95786300  0.05597200  0.05875800  1
  C  11  1  0.05721900  0.08319600  0.08561600  1
  C  12  1  0.16508400  0.11051700  0.06322300  1
  C  13  1  0.17593300  0.10581000  0.01429200  1
  C  14  1  0.08563700  0.07253000  0.98910000  1
  C  31  1  0.06807900  0.48524400  0.99924900  1
  C  32  1  0.07886300  0.54333800  0.01812400  1
  C  33  1  0.14232700  0.58937700  0.99444100  1
  C  34  1  0.19106900  0.57983500  0.94912700  1
  C  35  1  0.17111500  0.52300200  0.92796100  1
  C  36  1  0.12115800  0.47432800  0.95428000  1
  C  39  1  0.98648100  0.44409800  0.02279400  1
  C  40  1  0.98877500  0.43478400  0.07189600  1
  C  41  1  0.88427700  0.40498300  0.09404200  1
  C  42  1  0.78673300  0.37665800  0.06675100  1
  C  43  1  0.78800900  0.38474200  0.01793300  1
  C  44  1  0.88424200  0.41923200  0.99698500  1
  C  61  1  0.42764000  0.49775800  0.51668600  1
  C  62  1  0.38777300  0.55649800  0.50538200  1
  C  63  1  0.29656900  0.58751300  0.53199000  1
  C  64  1  0.25210900  0.56277900  0.57432200  1
  C  65  1  0.29396700  0.50457400  0.58694500  1
  C  66  1  0.37139300  0.46988000  0.55648000  1
  C  69  1  0.53030800  0.47224000  0.49049200  1
  C  70  1  0.54100100  0.47709000  0.44112200  1
  C  71  1  0.65879400  0.46152400  0.41891700  1
  C  72  1  0.75686600  0.43094800  0.44382000  1
  C  73  1  0.73905500  0.41994200  0.49185900  1
  C  74  1  0.63097500  0.44341200  0.51467300  1
  C  91  1  0.55571500  0.99903600  0.50187600  1
  C  92  1  0.57372400  0.93814100  0.49032800  1
  C  93  1  0.66310000  0.90211100  0.51354100  1
  C  94  1  0.73110400  0.92467100  0.55227600  1
  C  95  1  0.71044200  0.98517900  0.56546900  1
  C  96  1  0.63232600  0.02383400  0.53819800  1
  C  99  1  0.45501500  0.03034700  0.47884400  1
  C  100  1  0.43121900  0.02460800  0.43022100  1
  C  101  1  0.31157900  0.04405000  0.41167500  1
  C  102  1  0.22671400  0.07952200  0.43886900  1
  C  103  1  0.25992200  0.09212400  0.48564100  1
  C  104  1  0.36865500  0.06502200  0.50548300  1
  C  121  1  0.36814700  0.21158800  0.95939300  1
  C  123  1  0.57593600  0.23527000  0.92894700  1
  C  124  1  0.58339000  0.28653800  0.95781900  1
  C  126  1  0.37236200  0.26381000  0.98705000  1
  C  127  1  0.28181200  0.28062200  0.01526000  1
  C  128  1  0.66352300  0.21977200  0.89915900  1
  C  131  1  0.26875800  0.17126600  0.95926200  1
  C  133  1  0.68976000  0.32392800  0.96082800  1
  C  135  1  0.90899800  0.30119800  0.53708000  1
  C  137  1  0.10185400  0.26136200  0.57027700  1
  C  138  1  0.11068200  0.21851800  0.53408400  1
  C  140  1  0.91752400  0.25879800  0.50070200  1
  C  141  1  0.83697000  0.25501600  0.46633500  1
  C  142  1  0.18268700  0.26586000  0.60447400  1
  C  145  1  0.81234800  0.34272200  0.54168700  1
  C  147  1  0.20957500  0.17771600  0.52825100  1
  C  149  1  0.63632500  0.79204100  0.03125500  1
  C  151  1  0.51630500  0.73685200  0.08840400  1
  C  152  1  0.54049300  0.68321400  0.06402500  1
  C  154  1  0.66024600  0.73777400  0.00715700  1
  C  155  1  0.72278100  0.73301400  0.96827000  1
  C  156  1  0.44930900  0.74063900  0.12644800  1
  C  159  1  0.67071100  0.84904600  0.01710400  1
  C  161  1  0.49817800  0.63088000  0.07632900  1
  C  163  1  0.13439200  0.71642700  0.48669000  1
  C  165  1  0.03185700  0.78260100  0.43235600  1
  C  166  1  0.05052800  0.83104500  0.46315100  1
  C  168  1  0.15248300  0.76536400  0.51737400  1
  C  169  1  0.20292000  0.76176300  0.55857700  1
  C  170  1  0.97561400  0.78655900  0.39210100  1
  C  173  1  0.16425100  0.65738000  0.49590100  1
  C  175  1  0.01319500  0.88558700  0.45531900  1
  C  177  1  0.15466600  0.03723200  0.20213700  1
  C  179  1  0.28592600  0.97203200  0.24798600  1
  C  180  1  0.24756400  0.00225200  0.28894600  1
  C  182  1  0.10876000  0.06459800  0.24322900  1
  C  183  1  0.02700000  0.10833100  0.24460800  1
  C  184  1  0.36963600  0.92905300  0.24658700  1
  C  187  1  0.12870800  0.05478400  0.15651100  1
  C  189  1  0.30130100  0.99298300  0.33308700  1
  C  191  1  0.76658800  0.45298100  0.20552200  1
  C  193  1  0.63427600  0.51795400  0.25130500  1
  C  194  1  0.68750000  0.49414900  0.29263300  1
  C  196  1  0.82762000  0.43269000  0.24655200  1
  C  197  1  0.91697700  0.39232200  0.24802100  1
  C  198  1  0.54225500  0.55706900  0.24982600  1
  C  201  1  0.78002300  0.43016200  0.16048900  1
  C  203  1  0.64104700  0.50580600  0.33755500  1
  C  205  1  0.83269600  0.97643100  0.77569300  1
  C  207  1  0.78547800  0.06093600  0.72708800  1
  C  208  1  0.79238700  0.02436200  0.68701100  1
  C  210  1  0.84684500  0.94062600  0.73550000  1
  C  211  1  0.87390300  0.88394300  0.73535100  1
  C  212  1  0.75563000  0.11727600  0.72672000  1
  C  215  1  0.83812700  0.95383600  0.82110100  1
  C  217  1  0.75673900  0.04190000  0.64193200  1
  C  219  1  0.20372400  0.52322200  0.79886900  1
  C  221  1  0.25416900  0.43619400  0.75328400  1
  C  222  1  0.24667900  0.47017400  0.71187400  1
  C  224  1  0.19424000  0.55698900  0.75743100  1
  C  225  1  0.16750300  0.61362300  0.75509000  1
  C  226  1  0.28200800  0.37967000  0.75474200  1
  C  229  1  0.18786900  0.54765200  0.84344600  1
  C  231  1  0.27662300  0.44947000  0.66701200  1
  H  7  1  0.89005000  0.94025900  0.03138300  1
  H  16  1  0.10405900  0.06523600  0.95461800  1
  H  19  1  0.88679700  0.11494200  0.93982400  1
  H  20  1  0.84455500  0.09261800  0.88769800  1
  H  21  1  0.82662800  0.04857400  0.11180400  1
  H  22  1  0.76963400  0.02997400  0.06083800  1
  H  23  1  0.24716200  0.15216900  0.11952200  1
  H  24  1  0.32780700  0.16113000  0.07141000  1
  H  25  1  0.66281200  0.89787800  0.86906900  1
  H  26  1  0.66675900  0.84872400  0.91113400  1
  H  37  1  0.03625300  0.55315800  0.04931500  1
  H  46  1  0.87521900  0.42854700  0.96228500  1
  H  49  1  0.10648300  0.38327000  0.95636200  1
  H  50  1  0.16961100  0.40850800  0.90796200  1
  H  51  1  0.10094600  0.44378800  0.13020800  1
  H  52  1  0.17114800  0.46603900  0.08229400  1
  H  53  1  0.69825300  0.32786600  0.11793900  1
  H  54  1  0.63131600  0.32043200  0.06709400  1
  H  55  1  0.31948200  0.61320400  0.90271200  1
  H  56  1  0.28243700  0.66046300  0.94408700  1
  H  67  1  0.42842100  0.57841900  0.47784700  1
  H  76  1  0.62782100  0.44012000  0.55012300  1
  H  79  1  0.41817600  0.38444400  0.53925300  1
  H  80  1  0.32810400  0.38945800  0.58542100  1
  H  81  1  0.43149500  0.47649200  0.38272700  1
  H  82  1  0.34976400  0.48891200  0.42983200  1
  H  83  1  0.88234800  0.41833600  0.38956300  1
  H  84  1  0.93452700  0.39165200  0.43925500  1
  H  85  1  0.13395100  0.57799800  0.63015500  1
  H  86  1  0.14069500  0.63418600  0.59362200  1
  H  97  1  0.51784400  0.91874000  0.46519200  1
  H  106  1  0.38206500  0.06930400  0.54056200  1
  H  109  1  0.60313200  0.11115500  0.52092500  1
  H  110  1  0.71243000  0.10135800  0.56059800  1
  H  111  1  0.52574900  0.01911600  0.36864500  1
  H  112  1  0.61610200  0.00386800  0.41311900  1
  H  113  1  0.08877900  0.09352000  0.38897900  1
  H  114  1  0.05487800  0.12428800  0.43928900  1
  H  115  1  0.86467200  0.90305800  0.60188800  1
  H  116  1  0.82826100  0.84727500  0.56703100  1
  H  132  1  0.18286000  0.18792400  0.95149900  1
  H  134  1  0.77381100  0.30686800  0.95126400  1
  H  146  1  0.72435300  0.32588600  0.54354400  1
  H  148  1  0.28648200  0.18087000  0.54845000  1
  H  160  1  0.61645600  0.88320100  0.02736600  1
  H  162  1  0.46807100  0.59383000  0.08500900  1
  H  174  1  0.10354600  0.62597800  0.48510000  1
  H  176  1  0.98665000  0.92420300  0.44981900  1
  H  188  1  0.09905700  0.10182200  0.15536100  1
  H  190  1  0.36959400  0.96095000  0.33774900  1
  H  202  1  0.81668100  0.38521600  0.16071500  1
  H  204  1  0.56753400  0.53519600  0.34229400  1
  H  216  1  0.85383800  0.90929400  0.82610600  1
  H  218  1  0.71499200  0.08247000  0.63680700  1
  H  230  1  0.16714800  0.59198300  0.84669100  1
  H  232  1  0.31638400  0.40832400  0.66255800  1
  N  8  1  0.70277800  0.88472300  0.89768300  1
  N  15  1  0.25538500  0.14260200  0.08693900  1
  N  17  1  0.87327600  0.08180400  0.91864800  1
  N  18  1  0.84406800  0.04074800  0.07924600  1
  N  27  1  0.27314600  0.13112800  0.99166500  1
  N  28  1  0.04181900  0.08100200  0.13248900  1
  N  29  1  0.82872000  0.98969800  0.85857500  1
  N  30  1  0.76439500  0.85883800  0.98915700  1
  N  38  1  0.26352900  0.62302300  0.92848900  1
  N  45  1  0.69470400  0.34086200  0.08595300  1
  N  47  1  0.12608200  0.41750600  0.93695500  1
  N  48  1  0.09314200  0.45228000  0.09725400  1
  N  57  1  0.69097800  0.36555400  0.99206400  1
  N  58  1  0.88128300  0.40848500  0.14126900  1
  N  59  1  0.18278700  0.51280600  0.88161100  1
  N  60  1  0.15116500  0.63898600  0.01463500  1
  N  68  1  0.17075100  0.59467800  0.60206200  1
  N  75  1  0.86684700  0.41215600  0.42245500  1
  N  77  1  0.38221800  0.40984600  0.56327800  1
  N  78  1  0.43350800  0.48741200  0.41520200  1
  N  87  1  0.82693400  0.38968600  0.51584600  1
  N  88  1  0.68513200  0.47349800  0.37373100  1
  N  89  1  0.27025400  0.48835600  0.63136000  1
  N  90  1  0.26444800  0.64248300  0.51914800  1
  N  98  1  0.81271400  0.88833200  0.57636300  1
  N  105  1  0.11451400  0.10098400  0.42085700  1
  N  107  1  0.64208400  0.08418200  0.54321400  1
  N  108  1  0.52967700  0.00909600  0.40133200  1
  N  117  1  0.18322400  0.12519800  0.51203400  1
  N  118  1  0.27106600  0.03027400  0.36822800  1
  N  119  1  0.75178800  0.99970600  0.60855400  1
  N  120  1  0.67317000  0.84870200  0.50061500  1
  N  122  1  0.46986700  0.20028000  0.93133300  1
  N  125  1  0.47943100  0.29792300  0.98509100  1
  N  129  1  0.74022400  0.20710400  0.87234300  1
  N  130  1  0.20189400  0.29545800  0.04011100  1
  N  136  1  0.00181800  0.30018000  0.57013500  1
  N  139  1  0.01769800  0.22029000  0.50094900  1
  N  143  1  0.25370100  0.26985800  0.63476200  1
  N  144  1  0.76618400  0.25197200  0.43591100  1
  N  150  1  0.56448000  0.78824300  0.07061100  1
  N  153  1  0.61105400  0.68636400  0.02457200  1
  N  157  1  0.39034700  0.74393600  0.16000300  1
  N  158  1  0.77787700  0.72840300  0.93394600  1
  N  164  1  0.07373000  0.72791900  0.44582300  1
  N  167  1  0.10945100  0.81996900  0.50422600  1
  N  171  1  0.92612600  0.79011700  0.35660800  1
  N  172  1  0.24716200  0.75885400  0.59501000  1
  N  178  1  0.23998700  0.99191200  0.20671300  1
  N  181  1  0.15958900  0.04664200  0.28414500  1
  N  185  1  0.44328400  0.89103100  0.24530900  1
  N  186  1  0.95475800  0.14693000  0.24585400  1
  N  192  1  0.67383900  0.49500600  0.21014300  1
  N  195  1  0.78278600  0.45313200  0.28772400  1
  N  199  1  0.46130700  0.59170700  0.24838200  1
  N  200  1  0.99608400  0.35676600  0.24934300  1
  N  206  1  0.80416900  0.03512200  0.76919200  1
  N  209  1  0.82450600  0.96616600  0.69375500  1
  N  213  1  0.72952500  0.16704000  0.72646600  1
  N  214  1  0.89788400  0.83394900  0.73515200  1
  N  220  1  0.23245200  0.46419600  0.79439200  1
  N  223  1  0.21629100  0.52888400  0.71666800  1
  N  227  1  0.30640300  0.32974400  0.75602200  1
  N  228  1  0.14390100  0.66357600  0.75284600  1
