# generated using pymatgen
data_H9C16N4O3
_symmetry_space_group_name_H-M   'P 1'
_cell_length_a   19.77507500
_cell_length_b   19.77505000
_cell_length_c   30.87950000
_cell_angle_alpha   90.00000000
_cell_angle_beta   90.00000000
_cell_angle_gamma   119.99987454
_symmetry_Int_Tables_number   1
_chemical_formula_structural   H9C16N4O3
_chemical_formula_sum   'H54 C96 N24 O18'
_cell_volume   10457.72385982
_cell_formula_units_Z   6
loop_
 _symmetry_equiv_pos_site_id
 _symmetry_equiv_pos_as_xyz
  1  'x, y, z'
loop_
 _atom_site_type_symbol
 _atom_site_label
 _atom_site_symmetry_multiplicity
 _atom_site_fract_x
 _atom_site_fract_y
 _atom_site_fract_z
 _atom_site_occupancy
  C  1  1  0.39859700  0.44653100  0.01961500  1
  C  2  1  0.37937900  0.49496000  0.04424600  1
  C  3  1  0.37746050  0.49451750  0.09011800  1
  C  4  1  0.40077300  0.44519700  0.11124900  1
  C  5  1  0.42175500  0.39568300  0.08841500  1
  C  6  1  0.41764700  0.39650900  0.04271500  1
  C  9  1  0.39810000  0.44706000  0.97287100  1
  C  10  1  0.34513700  0.46105500  0.94905700  1
  C  11  1  0.34664750  0.46654450  0.90333000  1
  C  12  1  0.39817150  0.44780550  0.88099000  1
  C  13  1  0.45093850  0.43046050  0.90305400  1
  C  14  1  0.45183000  0.43457600  0.94880400  1
  C  29  1  0.89922050  0.45309450  0.35290400  1
  C  30  1  0.96686700  0.47229400  0.37752900  1
  C  31  1  0.96835800  0.47429900  0.42340100  1
  C  32  1  0.89570350  0.45089150  0.44453500  1
  C  33  1  0.82518800  0.42985200  0.42170700  1
  C  34  1  0.83015000  0.43403800  0.37600400  1
  C  37  1  0.90023050  0.45357450  0.30616100  1
  C  38  1  0.96716850  0.50654550  0.28233600  1
  C  39  1  0.97106600  0.50511700  0.23660400  1
  C  40  1  0.90078400  0.45359700  0.21428200  1
  C  41  1  0.83072200  0.40074800  0.23636100  1
  C  42  1  0.83401650  0.39980250  0.28210600  1
  C  57  1  0.40479350  0.95207950  0.68632800  1
  C  58  1  0.35613250  0.88446050  0.71091500  1
  C  59  1  0.35636250  0.88292050  0.75678700  1
  C  60  1  0.40571650  0.95553350  0.77794600  1
  C  61  1  0.45552700  0.02601400  0.75515700  1
  C  62  1  0.45488550  0.02107950  0.70945600  1
  C  65  1  0.40438300  0.95108700  0.63958600  1
  C  66  1  0.39039400  0.88412500  0.61578400  1
  C  67  1  0.38496150  0.88014650  0.57005800  1
  C  68  1  0.40378750  0.95043150  0.54771300  1
  C  69  1  0.42116500  0.02056300  0.56977300  1
  C  70  1  0.41695550  0.01732750  0.61551900  1
  C  85  1  0.55668300  0.33278500  0.86088000  1
  C  86  1  0.59321650  0.36523850  0.82041900  1
  C  87  1  0.59486650  0.31471450  0.78756000  1
  C  88  1  0.55849600  0.23288600  0.79618800  1
  C  91  1  0.63578800  0.34897400  0.74854700  1
  C  92  1  0.67295750  0.42990750  0.74158500  1
  C  93  1  0.67130650  0.47892850  0.77378200  1
  C  94  1  0.63261850  0.44697450  0.81300000  1
  C  99  1  0.53598350  0.17113350  0.76570100  1
  C  100  1  0.53046250  0.36676650  0.89239700  1
  C  103  1  0.62731850  0.29455750  0.19422600  1
  C  104  1  0.62350650  0.25830050  0.15371400  1
  C  105  1  0.57151300  0.25682300  0.12080500  1
  C  106  1  0.52592000  0.29302400  0.12944200  1
  C  109  1  0.56511800  0.21619800  0.08171500  1
  C  110  1  0.60902050  0.17918550  0.07472300  1
  C  111  1  0.65945400  0.18058400  0.10700000  1
  C  112  1  0.66592850  0.21899750  0.14628800  1
  C  117  1  0.48692850  0.31576450  0.09893000  1
  C  118  1  0.68751200  0.32106200  0.22576500  1
  C  121  1  0.51857450  0.22412250  0.52755100  1
  C  122  1  0.48611400  0.22791800  0.48704200  1
  C  123  1  0.53656850  0.27996050  0.45412300  1
  C  124  1  0.61838250  0.32555450  0.46272100  1
  C  127  1  0.50224350  0.28633350  0.41506200  1
  C  128  1  0.42132950  0.24232350  0.40808600  1
  C  129  1  0.37236950  0.19183650  0.44036700  1
  C  130  1  0.40437950  0.18544850  0.47964500  1
  C  135  1  0.68007150  0.36452750  0.43216100  1
  C  136  1  0.48511900  0.16386500  0.55902500  1
  C  139  1  0.24768050  0.57153350  0.86206000  1
  C  140  1  0.21000000  0.54088200  0.82160800  1
  C  141  1  0.21102950  0.59306950  0.78875200  1
  C  142  1  0.24923800  0.67509400  0.79812000  1
  C  145  1  0.17644950  0.55967950  0.74815100  1
  C  146  1  0.13851000  0.47881000  0.74081300  1
  C  147  1  0.13338650  0.42835250  0.77401700  1
  C  148  1  0.16860150  0.45915250  0.81408600  1
  C  153  1  0.26589300  0.73928100  0.77023300  1
  C  154  1  0.27153400  0.53498700  0.89327900  1
  C  157  1  0.17501450  0.60376750  0.19535600  1
  C  158  1  0.18215150  0.64135950  0.15485700  1
  C  159  1  0.23315300  0.63999000  0.12201700  1
  C  160  1  0.27673600  0.60157600  0.13144300  1
  C  163  1  0.23423900  0.67423200  0.08132000  1
  C  164  1  0.19151050  0.71235350  0.07390000  1
  C  165  1  0.14650250  0.71799950  0.10711700  1
  C  166  1  0.14205700  0.68296800  0.14725300  1
  C  171  1  0.32439400  0.58499600  0.10362900  1
  C  172  1  0.11457050  0.58028450  0.22653600  1
  C  175  1  0.27998600  0.67626600  0.52880400  1
  C  176  1  0.31047300  0.66938300  0.48826600  1
  C  177  1  0.25814200  0.61854100  0.45536700  1
  C  178  1  0.17613800  0.57488900  0.46476500  1
  C  181  1  0.29136450  0.61760350  0.41466400  1
  C  182  1  0.37223000  0.66039300  0.40728300  1
  C  183  1  0.42283000  0.70528800  0.44054500  1
  C  184  1  0.39218400  0.70953600  0.48070400  1
  C  189  1  0.11192650  0.52737150  0.43690200  1
  C  190  1  0.31654250  0.73661650  0.56006800  1
  H  7  1  0.36415800  0.52968200  0.02779900  1
  H  16  1  0.49483350  0.43115150  0.96515100  1
  H  17  1  0.45790750  0.48956150  0.16286600  1
  H  18  1  0.36049250  0.39552650  0.82744100  1
  H  19  1  0.42402850  0.35623650  0.02547400  1
  H  20  1  0.30233200  0.46471800  0.96545200  1
  H  22  1  0.49858700  0.41885000  0.84876100  1
  H  24  1  0.30084050  0.48149750  0.84918700  1
  H  26  1  0.34140750  0.51839250  0.14477300  1
  H  28  1  0.43325250  0.34658750  0.14196800  1
  H  35  1  0.01681450  0.48756850  0.36107500  1
  H  44  1  0.78763650  0.35677450  0.29846700  1
  H  45  1  0.88300950  0.39373950  0.49613500  1
  H  46  1  0.88606000  0.49136600  0.16079300  1
  H  47  1  0.78349800  0.42761500  0.35875300  1
  H  48  1  0.01363500  0.54938000  0.29871900  1
  H  50  1  0.77139350  0.35307550  0.18206300  1
  H  52  1  0.03178650  0.55094850  0.18245800  1
  H  54  1  0.02826750  0.51028950  0.47804200  1
  H  56  1  0.76454150  0.41812150  0.47526700  1
  H  63  1  0.32129900  0.83462700  0.69441500  1
  H  72  1  0.42036300  0.06375300  0.63186300  1
  H  73  1  0.36123850  0.96839050  0.82949100  1
  H  74  1  0.45621500  0.96501800  0.49421800  1
  H  75  1  0.49527550  0.06766750  0.69223100  1
  H  76  1  0.38667750  0.83765350  0.63219900  1
  H  78  1  0.43276850  0.07980250  0.51548800  1
  H  80  1  0.36987350  0.81931550  0.51590200  1
  H  82  1  0.33180800  0.82302800  0.81147200  1
  H  84  1  0.50421200  0.08655200  0.80877400  1
  H  95  1  0.64365250  0.31656450  0.72552900  1
  H  96  1  0.70361250  0.45345050  0.71364200  1
  H  97  1  0.70058950  0.53810350  0.76928500  1
  H  98  1  0.63659000  0.48481200  0.83676100  1
  H  113  1  0.52510600  0.20863700  0.05858900  1
  H  114  1  0.60217250  0.14881350  0.04670100  1
  H  115  1  0.68949600  0.15146700  0.10245700  1
  H  116  1  0.69972250  0.21495350  0.17006800  1
  H  131  1  0.53463050  0.32632450  0.39192000  1
  H  132  1  0.39776750  0.24904950  0.38004800  1
  H  133  1  0.31321200  0.16162800  0.43581700  1
  H  134  1  0.36659350  0.15154250  0.50341500  1
  H  149  1  0.17708100  0.59248500  0.72274300  1
  H  150  1  0.11333550  0.45648650  0.71141700  1
  H  151  1  0.10427400  0.36931900  0.76899400  1
  H  152  1  0.16237650  0.42060650  0.83796200  1
  H  167  1  0.26607050  0.67306050  0.05587600  1
  H  168  1  0.19432450  0.73733250  0.04444400  1
  H  169  1  0.11671050  0.74722450  0.10202900  1
  H  170  1  0.10986200  0.68944600  0.17110700  1
  H  185  1  0.25840650  0.58586250  0.38918700  1
  H  186  1  0.39444150  0.65770150  0.37782000  1
  H  187  1  0.48185450  0.73510950  0.43548700  1
  H  188  1  0.43080800  0.74163900  0.50460000  1
  N  21  1  0.49770850  0.41049450  0.87979000  1
  N  23  1  0.30167400  0.48910000  0.88028000  1
  N  25  1  0.34953300  0.53373400  0.11459400  1
  N  27  1  0.44538350  0.35124650  0.11127800  1
  N  49  1  0.76400850  0.35394650  0.21309600  1
  N  51  1  0.03857650  0.55013450  0.21355600  1
  N  53  1  0.03550700  0.50216100  0.44786700  1
  N  55  1  0.75708950  0.40610450  0.44456400  1
  N  77  1  0.44121050  0.08731650  0.54650500  1
  N  79  1  0.36239250  0.81262650  0.54700700  1
  N  81  1  0.31686050  0.81575350  0.78123500  1
  N  83  1  0.49999950  0.09406550  0.77804200  1
  N  89  1  0.53371850  0.21086450  0.83748700  1
  N  90  1  0.53291450  0.25642950  0.86744400  1
  N  107  1  0.52851700  0.31769900  0.17075400  1
  N  108  1  0.57476800  0.31839400  0.20075200  1
  N  125  1  0.64050250  0.32289850  0.50401400  1
  N  126  1  0.59498500  0.27663900  0.53402100  1
  N  143  1  0.27720300  0.69531700  0.83905400  1
  N  144  1  0.27685000  0.64873500  0.86860700  1
  N  161  1  0.26893300  0.57368600  0.17239900  1
  N  162  1  0.22280150  0.57430650  0.20192700  1
  N  179  1  0.15599250  0.58258350  0.50572700  1
  N  180  1  0.20270800  0.62857600  0.53531300  1
  O  8  1  0.40525650  0.44698850  0.15547200  1
  O  15  1  0.39870950  0.44884550  0.83673400  1
  O  36  1  0.89302050  0.44637450  0.48875500  1
  O  43  1  0.90121450  0.45315650  0.17002200  1
  O  64  1  0.40376500  0.95820100  0.82216400  1
  O  71  1  0.40288100  0.94995800  0.50345700  1
  O  101  1  0.53060450  0.18852850  0.72394300  1
  O  102  1  0.50977800  0.32969200  0.93123200  1
  O  119  1  0.51047250  0.32203050  0.05727100  1
  O  120  1  0.67110000  0.34151100  0.26465500  1
  O  137  1  0.66273400  0.34150400  0.39044400  1
  O  138  1  0.52203050  0.17984850  0.59789500  1
  O  155  1  0.22923050  0.72512250  0.73166400  1
  O  156  1  0.29333450  0.57074250  0.93243900  1
  O  173  1  0.34779000  0.62236400  0.06528600  1
  O  174  1  0.12875750  0.55847450  0.26564600  1
  O  191  1  0.12595950  0.50415750  0.39852000  1
  O  192  1  0.28093200  0.72243300  0.59927100  1
