# generated using pymatgen
data_H12C12N5
_symmetry_space_group_name_H-M   'P 1'
_cell_length_a   22.13667500
_cell_length_b   22.13665000
_cell_length_c   28.14750000
_cell_angle_alpha   90.00000000
_cell_angle_beta   90.00000000
_cell_angle_gamma   119.99988792
_symmetry_Int_Tables_number   1
_chemical_formula_structural   H12C12N5
_chemical_formula_sum   'H72 C72 N30'
_cell_volume   11945.24983677
_cell_formula_units_Z   6
loop_
 _symmetry_equiv_pos_site_id
 _symmetry_equiv_pos_as_xyz
  1  'x, y, z'
loop_
 _atom_site_type_symbol
 _atom_site_label
 _atom_site_symmetry_multiplicity
 _atom_site_fract_x
 _atom_site_fract_y
 _atom_site_fract_z
 _atom_site_occupancy
  C  1  1  0.96622850  0.48387050  0.33259100  1
  C  7  1  0.40988200  0.48343500  0.99922600  1
  C  8  1  0.40847050  0.52078450  0.03956300  1
  C  9  1  0.36976100  0.55578700  0.04029900  1
  C  10  1  0.33489300  0.55831000  0.99857200  1
  C  11  1  0.33726700  0.52252500  0.95732100  1
  C  12  1  0.37230300  0.48389400  0.95873700  1
  C  15  1  0.44780700  0.44649700  0.99924000  1
  C  16  1  0.44918850  0.40914250  0.03958400  1
  C  17  1  0.48787650  0.37411950  0.04034100  1
  C  18  1  0.52275650  0.37157850  0.99862400  1
  C  19  1  0.52041750  0.40737350  0.95736700  1
  C  20  1  0.48541600  0.44603500  0.95876600  1
  C  37  1  0.00497800  0.48526100  0.37292800  1
  C  38  1  0.07869100  0.52396800  0.37367400  1
  C  39  1  0.11609450  0.55885150  0.33195100  1
  C  40  1  0.07794550  0.55649650  0.29070100  1
  C  41  1  0.00428050  0.52147450  0.29210800  1
  C  43  1  0.89136500  0.44594400  0.33259400  1
  C  44  1  0.85262700  0.44457000  0.37293350  1
  C  45  1  0.77891450  0.40586850  0.37368900  1
  C  46  1  0.74149950  0.37098350  0.33196900  1
  C  47  1  0.77963800  0.37332900  0.29071500  1
  C  48  1  0.85330400  0.40834200  0.29211500  1
  C  64  1  0.41036250  0.92748850  0.66592200  1
  C  65  1  0.37299400  0.88875900  0.70626300  1
  C  66  1  0.33797650  0.81504650  0.70702300  1
  C  67  1  0.33544350  0.77762350  0.66530900  1
  C  68  1  0.37123800  0.81575500  0.62405200  1
  C  69  1  0.40989050  0.88941950  0.62544500  1
  C  72  1  0.44730850  0.00235250  0.66591000  1
  C  73  1  0.48467800  0.04110900  0.70624400  1
  C  74  1  0.51968350  0.11482150  0.70698300  1
  C  75  1  0.52221100  0.15221700  0.66525600  1
  C  76  1  0.48642250  0.11406050  0.62400600  1
  C  77  1  0.44777050  0.04039650  0.62542300  1
  C  94  1  0.54830000  0.32147400  0.80771400  1
  C  96  1  0.51511200  0.20096600  0.81419500  1
  C  97  1  0.48416400  0.19839200  0.85857400  1
  C  99  1  0.51676750  0.31856550  0.85189900  1
  C  102  1  0.50880750  0.13706150  0.79257000  1
  C  105  1  0.51060450  0.37726650  0.87140500  1
  C  108  1  0.66588700  0.34548700  0.14105000  1
  C  110  1  0.57857300  0.37868100  0.14754400  1
  C  111  1  0.60696850  0.40964250  0.19191800  1
  C  113  1  0.69451350  0.37700350  0.18524200  1
  C  116  1  0.52095300  0.38496700  0.12593700  1
  C  119  1  0.75936100  0.38313400  0.20474700  1
  C  122  1  0.57231250  0.22779750  0.47435100  1
  C  124  1  0.69281250  0.31510850  0.48084900  1
  C  125  1  0.69540450  0.28666650  0.52519400  1
  C  127  1  0.57521550  0.19912950  0.51852200  1
  C  130  1  0.75668800  0.37285000  0.45929800  1
  C  133  1  0.51647050  0.13430250  0.53803000  1
  C  136  1  0.30936200  0.60842200  0.80769800  1
  C  138  1  0.34261450  0.72894350  0.81419700  1
  C  139  1  0.37361250  0.73150650  0.85855200  1
  C  141  1  0.34095600  0.61131700  0.85185800  1
  C  144  1  0.34878050  0.79282250  0.79263200  1
  C  147  1  0.34704750  0.55256650  0.87134400  1
  C  150  1  0.19171650  0.58439850  0.14104300  1
  C  152  1  0.27903150  0.55120350  0.14751600  1
  C  153  1  0.25066200  0.52025700  0.19189600  1
  C  155  1  0.16309150  0.55286250  0.18522800  1
  C  158  1  0.33661850  0.54488650  0.12588300  1
  C  161  1  0.09822900  0.54669800  0.20473200  1
  C  164  1  0.28533500  0.70199700  0.47438700  1
  C  166  1  0.16482950  0.61467750  0.48087800  1
  C  167  1  0.16225400  0.64306900  0.52525100  1
  C  169  1  0.28243700  0.73062000  0.51857500  1
  C  172  1  0.10092700  0.55705600  0.45926600  1
  C  175  1  0.34114900  0.79547000  0.53808700  1
  H  2  1  0.97948600  0.45808400  0.40277100  1
  H  3  1  0.97825950  0.52306550  0.26252400  1
  H  13  1  0.43563600  0.52246900  0.06941300  1
  H  22  1  0.48701550  0.47363950  0.92917600  1
  H  23  1  0.55921000  0.30991700  0.02573200  1
  H  24  1  0.58167500  0.33294300  0.96992100  1
  H  25  1  0.27594850  0.59690250  0.96984600  1
  H  26  1  0.29837800  0.61993100  0.02566500  1
  H  27  1  0.37069550  0.45626050  0.92916100  1
  H  28  1  0.42200350  0.40745950  0.06942400  1
  H  30  1  0.59598800  0.45444400  0.90853200  1
  H  32  1  0.44241050  0.29901050  0.08975600  1
  H  34  1  0.26169900  0.47539200  0.90849700  1
  H  36  1  0.41514900  0.63088800  0.08973100  1
  H  50  1  0.87931750  0.40673050  0.26253500  1
  H  51  1  0.64338050  0.33447950  0.35908300  1
  H  52  1  0.64394850  0.31201250  0.30327400  1
  H  53  1  0.21364100  0.61783500  0.30324900  1
  H  54  1  0.21422300  0.59537800  0.35906200  1
  H  55  1  0.87812600  0.47175600  0.40277500  1
  H  57  1  0.75115450  0.29775850  0.24188300  1
  H  59  1  0.74926900  0.45136300  0.42307800  1
  H  61  1  0.10640900  0.63206400  0.24186900  1
  H  63  1  0.10837000  0.47852800  0.42308900  1
  H  70  1  0.37132350  0.91426550  0.73610400  1
  H  79  1  0.42014050  0.01437350  0.59584300  1
  H  80  1  0.58378050  0.25035250  0.69236500  1
  H  81  1  0.56075150  0.24975850  0.63655000  1
  H  82  1  0.29688350  0.68006650  0.63662500  1
  H  83  1  0.27385100  0.67950700  0.69243700  1
  H  84  1  0.43752450  0.91542350  0.59586500  1
  H  85  1  0.48634550  0.01562350  0.73609700  1
  H  87  1  0.43932050  0.14252850  0.57517550  1
  H  89  1  0.59479300  0.14451900  0.75640600  1
  H  91  1  0.41831150  0.78725350  0.57522300  1
  H  93  1  0.26284800  0.78541800  0.75642000  1
  H  100  1  0.57116050  0.36602550  0.78782800  1
  H  101  1  0.45892450  0.15311150  0.87760600  1
  H  103  1  0.45350650  0.10246350  0.78462600  1
  H  104  1  0.52368800  0.11062600  0.81902200  1
  H  106  1  0.45528650  0.35783550  0.87848700  1
  H  107  1  0.52666800  0.41878000  0.84495800  1
  H  114  1  0.68752950  0.32255350  0.12118700  1
  H  115  1  0.58693700  0.43488800  0.21095000  1
  H  117  1  0.54163150  0.44026850  0.11800300  1
  H  118  1  0.47964300  0.37005900  0.15239700  1
  H  120  1  0.79526800  0.43845000  0.21182400  1
  H  121  1  0.78479550  0.36705250  0.17830000  1
  H  128  1  0.52772800  0.20618500  0.45450200  1
  H  129  1  0.74065600  0.30677400  0.54426900  1
  H  131  1  0.79144400  0.35231400  0.45140400  1
  H  132  1  0.78294700  0.41414700  0.48578400  1
  H  134  1  0.53584300  0.09836400  0.54510400  1
  H  135  1  0.47494950  0.10889150  0.51158200  1
  H  142  1  0.28644050  0.56386350  0.78782050  1
  H  143  1  0.39880650  0.77676450  0.87761100  1
  H  145  1  0.40407100  0.82755100  0.78473200  1
  H  146  1  0.33376800  0.81911100  0.81911500  1
  H  148  1  0.40236150  0.57193650  0.87840700  1
  H  149  1  0.33092900  0.51105400  0.84489000  1
  H  156  1  0.17002250  0.60725750  0.12115800  1
  H  157  1  0.27070000  0.49501200  0.21092500  1
  H  159  1  0.31590100  0.48958600  0.11792900  1
  H  160  1  0.37793550  0.55974750  0.15233000  1
  H  162  1  0.06233850  0.49137850  0.21181300  1
  H  163  1  0.07277850  0.56276450  0.17828900  1
  H  170  1  0.32990950  0.72364150  0.45452700  1
  H  171  1  0.11697550  0.62303450  0.54428300  1
  H  173  1  0.06630200  0.57773100  0.45133300  1
  H  174  1  0.07452400  0.51574300  0.48572300  1
  H  176  1  0.32173650  0.83137650  0.54516400  1
  H  177  1  0.38266950  0.82091050  0.51164100  1
  N  14  1  0.29984350  0.59435150  0.99807300  1
  N  21  1  0.55777450  0.33550450  0.99814000  1
  N  29  1  0.55424450  0.40564850  0.91493000  1
  N  31  1  0.49090250  0.34079350  0.08266800  1
  N  33  1  0.30342400  0.52420400  0.91487800  1
  N  35  1  0.36667600  0.58908400  0.08262600  1
  N  42  1  0.18718700  0.59388600  0.33146100  1
  N  49  1  0.67041000  0.33596000  0.33148200  1
  N  56  1  0.74409650  0.33949850  0.24827400  1
  N  58  1  0.74255850  0.40286250  0.41601200  1
  N  60  1  0.11348100  0.59033200  0.24826000  1
  N  62  1  0.11505800  0.52701300  0.41599800  1
  N  71  1  0.29936550  0.70653350  0.66482400  1
  N  78  1  0.55827300  0.22330900  0.66475500  1
  N  86  1  0.48812250  0.14958750  0.58155800  1
  N  88  1  0.55299350  0.15119650  0.74930700  1
  N  90  1  0.36951500  0.78020300  0.58161500  1
  N  92  1  0.30463000  0.77870000  0.74934900  1
  N  95  1  0.54580750  0.26292750  0.79059000  1
  N  98  1  0.48581450  0.25661750  0.87544400  1
  N  109  1  0.60981800  0.34796200  0.12394000  1
  N  112  1  0.66353400  0.40797400  0.20878600  1
  N  123  1  0.63084250  0.28389950  0.45725600  1
  N  126  1  0.63716200  0.23011000  0.54207000  1
  N  137  1  0.31184200  0.66697400  0.79059800  1
  N  140  1  0.37193500  0.67326000  0.87540900  1
  N  151  1  0.24776700  0.58190300  0.12391200  1
  N  154  1  0.19408900  0.52190800  0.20876800  1
  N  165  1  0.22679400  0.64592700  0.45727500  1
  N  168  1  0.22048700  0.69963800  0.54211900  1
