# generated using pymatgen
data_H11C17N4
_symmetry_space_group_name_H-M   'P 1'
_cell_length_a   20.91170000
_cell_length_b   20.91170000
_cell_length_c   37.65680000
_cell_angle_alpha   90.00000000
_cell_angle_beta   90.00000000
_cell_angle_gamma   120.00000000
_symmetry_Int_Tables_number   1
_chemical_formula_structural   H11C17N4
_chemical_formula_sum   'H132 C204 N48'
_cell_volume   14261.09008363
_cell_formula_units_Z   12
loop_
 _symmetry_equiv_pos_site_id
 _symmetry_equiv_pos_as_xyz
  1  'x, y, z'
loop_
 _atom_site_type_symbol
 _atom_site_label
 _atom_site_symmetry_multiplicity
 _atom_site_fract_x
 _atom_site_fract_y
 _atom_site_fract_z
 _atom_site_occupancy
  C  1  1  0.86943450  0.13043550  0.90864200  1
  C  2  1  0.90394700  0.10730500  0.88313000  1
  C  3  1  0.87489800  0.08510300  0.84865300  1
  C  4  1  0.81035850  0.08535050  0.83887300  1
  C  5  1  0.77325650  0.10539950  0.86361700  1
  C  6  1  0.80300050  0.12777650  0.89789800  1
  C  10  1  0.90236800  0.15976900  0.94237400  1
  C  11  1  0.95443500  0.14356500  0.95797100  1
  C  12  1  0.99361000  0.17901300  0.98901500  1
  C  13  1  0.98293150  0.23397750  0.00478400  1
  C  14  1  0.93257250  0.25268950  0.99010000  1
  C  15  1  0.89093350  0.21338050  0.96003300  1
  C  23  1  0.31740600  0.18317600  0.24394900  1
  C  24  1  0.26013000  0.14888800  0.21821600  1
  C  25  1  0.26710300  0.17779900  0.18385600  1
  C  26  1  0.33135350  0.24322550  0.17477100  1
  C  27  1  0.38885450  0.28086750  0.19955300  1
  C  28  1  0.38248500  0.24870600  0.23333400  1
  C  32  1  0.31071100  0.14799200  0.27732600  1
  C  33  1  0.23975350  0.09901950  0.29168200  1
  C  34  1  0.22934750  0.04887550  0.31893100  1
  C  35  1  0.29081550  0.04644750  0.33208400  1
  C  36  1  0.36247000  0.09807300  0.32070800  1
  C  37  1  0.37276050  0.15118650  0.29470400  1
  C  45  1  0.90938800  0.72942900  0.57293300  1
  C  46  1  0.93110150  0.78637550  0.54715000  1
  C  47  1  0.95242750  0.77890750  0.51252100  1
  C  48  1  0.95353100  0.71461300  0.50308900  1
  C  49  1  0.93531000  0.65851600  0.52823050  1
  C  50  1  0.91352000  0.66630700  0.56254400  1
  C  54  1  0.87980750  0.73267950  0.60663500  1
  C  55  1  0.89509950  0.80059950  0.62229200  1
  C  56  1  0.86005000  0.80350900  0.65368000  1
  C  57  1  0.80599050  0.73743950  0.66952100  1
  C  58  1  0.78734850  0.66878150  0.65440000  1
  C  59  1  0.82663750  0.66725150  0.62417200  1
  C  67  1  0.12792800  0.85027000  0.90427700  1
  C  68  1  0.08348850  0.84544650  0.87470600  1
  C  69  1  0.11137350  0.85951350  0.83980400  1
  C  70  1  0.18469750  0.87730750  0.83343800  1
  C  71  1  0.23201100  0.88824900  0.86211000  1
  C  72  1  0.20317300  0.87386700  0.89702100  1
  C  76  1  0.09784550  0.83068950  0.93923300  1
  C  77  1  0.03407950  0.83396950  0.94945200  1
  C  78  1  0.99891200  0.80642500  0.98232100  1
  C  79  1  0.02538900  0.77205500  0.00529600  1
  C  80  1  0.09012250  0.76996850  0.99680400  1
  C  81  1  0.12718950  0.80189250  0.96466400  1
  C  89  1  0.75395350  0.92535150  0.23789900  1
  C  90  1  0.80471000  0.96607100  0.21025000  1
  C  91  1  0.81300400  0.93226600  0.17963600  1
  C  92  1  0.76845200  0.85547700  0.17569000  1
  C  93  1  0.71250050  0.81370450  0.20046900  1
  C  94  1  0.70377750  0.84942150  0.23037900  1
  C  98  1  0.75679000  0.95829900  0.27175800  1
  C  99  1  0.82210200  0.02301600  0.28321600  1
  C  100  1  0.83000850  0.05178250  0.31774400  1
  C  101  1  0.77165050  0.01689050  0.34197600  1
  C  102  1  0.70435500  0.95502300  0.33167500  1
  C  103  1  0.69872350  0.92558850  0.29725400  1
  C  111  1  0.18903650  0.26640450  0.57009100  1
  C  112  1  0.19137500  0.22597300  0.54023800  1
  C  113  1  0.17601850  0.23999050  0.50561200  1
  C  114  1  0.15991150  0.29682750  0.49975600  1
  C  115  1  0.15173100  0.33438700  0.52869400  1
  C  116  1  0.16655450  0.31913450  0.56334100  1
  C  120  1  0.20995300  0.25589000  0.60477600  1
  C  121  1  0.20787650  0.18923750  0.61468600  1
  C  122  1  0.23651750  0.18186750  0.64729400  1
  C  123  1  0.27034500  0.24244000  0.67046400  1
  C  124  1  0.27099100  0.30873900  0.66240100  1
  C  125  1  0.23870550  0.31374750  0.63036200  1
  C  133  1  0.03807100  0.58488000  0.01082500  1
  C  134  1  0.97729250  0.54247250  0.03348800  1
  C  135  1  0.93199200  0.46515100  0.02783400  1
  C  136  1  0.94855650  0.43008650  0.00011500  1
  C  137  1  0.00864350  0.47346950  0.97732150  1
  C  138  1  0.05273800  0.54987700  0.98257450  1
  C  140  1  0.84993200  0.46003500  0.07373300  1
  C  141  1  0.89555250  0.53645150  0.07944500  1
  C  146  1  0.78082200  0.41624300  0.09375800  1
  C  150  1  0.07956500  0.66194100  0.01202000  1
  C  152  1  0.90379150  0.35469350  0.99279200  1
  C  154  1  0.57711350  0.97333250  0.35894200  1
  C  155  1  0.62114300  0.05099900  0.36284100  1
  C  156  1  0.59314350  0.09834050  0.35320600  1
  C  157  1  0.51925700  0.06843900  0.34135700  1
  C  158  1  0.47474500  0.99045900  0.33988100  1
  C  159  1  0.50310000  0.94409000  0.34824600  1
  C  161  1  0.70591300  0.20336900  0.37335900  1
  C  162  1  0.73254700  0.15608800  0.38338550  1
  C  167  1  0.74932050  0.28367250  0.37948300  1
  C  171  1  0.59709150  0.92029150  0.36796300  1
  C  173  1  0.48924650  0.11314650  0.33128500  1
  C  175  1  0.45510800  0.44437100  0.67570300  1
  C  176  1  0.49893750  0.42818150  0.69850400  1
  C  177  1  0.57597900  0.46023400  0.69202900  1
  C  178  1  0.60903950  0.50881350  0.66302500  1
  C  179  1  0.56420600  0.52336000  0.64015950  1
  C  180  1  0.48826600  0.49184200  0.64652250  1
  C  182  1  0.58420050  0.38742050  0.73915450  1
  C  183  1  0.50806500  0.35667900  0.74570050  1
  C  188  1  0.62938150  0.36398750  0.75931700  1
  C  192  1  0.37807900  0.40748000  0.67722500  1
  C  194  1  0.68396650  0.53912150  0.65477700  1
  C  196  1  0.51480350  0.46868550  0.16608000  1
  C  197  1  0.50320950  0.52593550  0.15329100  1
  C  198  1  0.55760100  0.60106600  0.15875000  1
  C  199  1  0.62680650  0.61930950  0.17376800  1
  C  200  1  0.64099850  0.56182350  0.18243300  1
  C  201  1  0.58423000  0.48775800  0.18081500  1
  C  203  1  0.47784000  0.63893900  0.13138700  1
  C  204  1  0.42403000  0.56439100  0.12626200  1
  C  209  1  0.46536250  0.69925150  0.12001400  1
  C  213  1  0.45668250  0.39510050  0.16585100  1
  C  215  1  0.68261400  0.69299100  0.17841500  1
  C  217  1  0.58540200  0.05138900  0.83628900  1
  C  218  1  0.52811300  0.99255900  0.81680900  1
  C  219  1  0.45377000  0.95851300  0.82897000  1
  C  220  1  0.43585000  0.98412300  0.86028800  1
  C  221  1  0.49311550  0.04448950  0.87861300  1
  C  222  1  0.56607250  0.07820950  0.86654400  1
  C  224  1  0.41820250  0.86550750  0.78362700  1
  C  225  1  0.49139550  0.90086650  0.77112300  1
  C  230  1  0.36033900  0.79586100  0.76792150  1
  C  234  1  0.66003800  0.07425200  0.82947700  1
  C  236  1  0.36444350  0.95220350  0.87483100  1
  C  238  1  0.99163250  0.52616150  0.50241400  1
  C  239  1  0.05120150  0.52834150  0.48334200  1
  C  240  1  0.08621950  0.48941250  0.49609900  1
  C  241  1  0.06100550  0.44676050  0.52768700  1
  C  242  1  0.00038950  0.44347550  0.54582700  1
  C  243  1  0.96552700  0.48111000  0.53307500  1
  C  245  1  0.17934050  0.54682750  0.45081700  1
  C  246  1  0.14288800  0.58307700  0.43764800  1
  C  251  1  0.24963250  0.55959950  0.43548900  1
  C  255  1  0.96708350  0.57630850  0.49466000  1
  C  257  1  0.09302100  0.40753300  0.54238100  1
  C  259  1  0.94235700  0.00896300  0.10734700  1
  C  260  1  0.97715650  0.08695850  0.11005500  1
  C  261  1  0.01696450  0.13238850  0.08076500  1
  C  262  1  0.02196100  0.10032300  0.04858400  1
  C  263  1  0.98759950  0.02276450  0.04608600  1
  C  264  1  0.94820600  0.97781200  0.07500700  1
  C  266  1  0.04747150  0.24057650  0.11519900  1
  C  267  1  0.00837650  0.19536850  0.14421600  1
  C  272  1  0.08397850  0.32172050  0.11706600  1
  C  276  1  0.90274800  0.96182200  0.13490600  1
  C  278  1  0.06842500  0.14303700  0.02159100  1
  C  280  1  0.11749700  0.10964200  0.43466300  1
  C  281  1  0.15904000  0.07301300  0.43633900  1
  C  282  1  0.16019500  0.03097600  0.40694700  1
  C  283  1  0.11996350  0.02544150  0.37577100  1
  C  284  1  0.07788200  0.06115300  0.37450400  1
  C  285  1  0.07667350  0.10266650  0.40355600  1
  C  287  1  0.23951250  0.99959850  0.43947500  1
  C  288  1  0.23766350  0.04086750  0.46860600  1
  C  293  1  0.28277350  0.96155350  0.44030300  1
  C  297  1  0.11428150  0.15083250  0.46255700  1
  C  299  1  0.11382050  0.97913550  0.34817400  1
  C  301  1  0.03245950  0.91268550  0.76989300  1
  C  302  1  0.95458300  0.87202900  0.77373700  1
  C  303  1  0.90825050  0.86953650  0.74553300  1
  C  304  1  0.93947150  0.90749150  0.71342500  1
  C  305  1  0.01701050  0.94859250  0.70995200  1
  C  306  1  0.06287550  0.95119150  0.73784100  1
  C  308  1  0.80124250  0.79360750  0.78106800  1
  C  309  1  0.84744350  0.79679450  0.80904500  1
  C  314  1  0.72013250  0.75151950  0.78410700  1
  C  318  1  0.07975450  0.91796650  0.79677700  1
  C  320  1  0.89617850  0.91277850  0.68721500  1
  C  322  1  0.13873750  0.05604550  0.12012800  1
  C  323  1  0.10623050  0.97818250  0.11900700  1
  C  324  1  0.10610250  0.94210150  0.08694100  1
  C  325  1  0.13832800  0.98410700  0.05587100  1
  C  326  1  0.16922500  0.06133200  0.05686400  1
  C  327  1  0.16859150  0.09665950  0.08843400  1
  C  329  1  0.04920400  0.82577800  0.11763200  1
  C  330  1  0.04888050  0.86185450  0.14915300  1
  C  335  1  0.02121200  0.74562000  0.11684000  1
  C  339  1  0.15564300  0.09283700  0.15233700  1
  C  341  1  0.14441250  0.95442850  0.02661000  1
  C  343  1  0.96199950  0.90969950  0.44999400  1
  C  344  1  0.91549750  0.94083950  0.45115400  1
  C  345  1  0.87732800  0.94238300  0.42018200  1
  C  346  1  0.88613950  0.91303250  0.38787700  1
  C  347  1  0.93294100  0.88262900  0.38676200  1
  C  348  1  0.97090700  0.88161100  0.41731700  1
  C  350  1  0.81731650  0.99423050  0.45446600  1
  C  351  1  0.85600400  0.99321100  0.48486400  1
  C  356  1  0.76349750  0.02007550  0.45626100  1
  C  360  1  0.98379550  0.89119950  0.48114300  1
  C  362  1  0.84912800  0.90934100  0.35936700  1
  C  364  1  0.99201000  0.07128700  0.78496100  1
  C  365  1  0.06958100  0.11827400  0.78370000  1
  C  366  1  0.10472600  0.15480100  0.75158700  1
  C  367  1  0.06193750  0.14387850  0.72067200  1
  C  368  1  0.98500450  0.09578950  0.72182200  1
  C  369  1  0.95060750  0.05943750  0.75346400  1
  C  371  1  0.22106950  0.21740050  0.78218800  1
  C  372  1  0.18582900  0.18055700  0.81376200  1
  C  377  1  0.30076450  0.27131950  0.78138600  1
  C  381  1  0.95595200  0.05298400  0.81730100  1
  C  383  1  0.09024250  0.18059250  0.69149800  1
  H  7  1  0.95495500  0.11384200  0.88788800  1
  H  8  1  0.77297450  0.13877950  0.91581000  1
  H  9  1  0.79070150  0.07112850  0.81351700  1
  H  16  1  0.96531400  0.10563500  0.94658300  1
  H  17  1  0.01750200  0.26571500  0.02475600  1
  H  18  1  0.85859650  0.23110950  0.94845100  1
  H  29  1  0.21608350  0.09737850  0.22263500  1
  H  30  1  0.42391050  0.27686150  0.25134200  1
  H  31  1  0.33714550  0.26166750  0.14917200  1
  H  38  1  0.19351150  0.09650350  0.28104700  1
  H  39  1  0.28288950  0.00464150  0.34896300  1
  H  40  1  0.42441050  0.18157850  0.28407200  1
  H  51  1  0.92324750  0.83009450  0.55176000  1
  H  52  1  0.90368950  0.62598450  0.58069800  1
  H  53  1  0.96714650  0.70862350  0.47769400  1
  H  60  1  0.93238150  0.84962550  0.61083600  1
  H  61  1  0.77454850  0.73969150  0.68981200  1
  H  62  1  0.80953850  0.61742150  0.61245600  1
  H  73  1  0.02872650  0.82840350  0.87788950  1
  H  74  1  0.23852450  0.88278250  0.91754100  1
  H  75  1  0.20548200  0.89006600  0.80814900  1
  H  82  1  0.01348450  0.85867750  0.93326700  1
  H  83  1  0.99790600  0.74887000  0.02846600  1
  H  84  1  0.17032550  0.79426350  0.95802200  1
  H  95  1  0.83671650  0.02219550  0.21183200  1
  H  96  1  0.66626950  0.81614550  0.24890700  1
  H  97  1  0.77217600  0.83096200  0.15287600  1
  H  104  1  0.86833100  0.04666000  0.26769200  1
  H  105  1  0.77983450  0.03396150  0.36783300  1
  H  106  1  0.64993550  0.87958750  0.29093600  1
  H  117  1  0.20728750  0.18731250  0.54294900  1
  H  118  1  0.15911150  0.34619150  0.58403000  1
  H  119  1  0.14703100  0.30565200  0.47462900  1
  H  126  1  0.18344900  0.14401400  0.59845800  1
  H  127  1  0.29423000  0.23835700  0.69344200  1
  H  128  1  0.24594150  0.36448050  0.62401800  1
  H  143  1  0.88260600  0.56384100  0.09798900  1
  H  144  1  0.09511600  0.57970000  0.96517700  1
  H  145  1  0.02058500  0.44977400  0.95644050  1
  H  147  1  0.75265350  0.35848850  0.08544400  1
  H  148  1  0.74389700  0.43821800  0.08921200  1
  H  149  1  0.79283850  0.41880550  0.12208800  1
  H  151  1  0.07759400  0.69237500  0.03505700  1
  H  153  1  0.88175400  0.34215600  0.96785550  1
  H  164  1  0.78323350  0.17591650  0.39490700  1
  H  165  1  0.46859850  0.88815650  0.34595100  1
  H  166  1  0.42117500  0.96580200  0.33129300  1
  H  168  1  0.71944350  0.31099550  0.37035300  1
  H  169  1  0.80155750  0.30692350  0.36512500  1
  H  170  1  0.76066150  0.29473150  0.40779550  1
  H  172  1  0.65041250  0.93365950  0.38073700  1
  H  174  1  0.52222200  0.16813900  0.32593400  1
  H  185  1  0.48189400  0.31777500  0.76499100  1
  H  186  1  0.45727700  0.50253700  0.62898250  1
  H  187  1  0.58652300  0.55711600  0.61853100  1
  H  189  1  0.68664750  0.39314750  0.75025500  1
  H  190  1  0.60745900  0.30481500  0.75577700  1
  H  191  1  0.62831400  0.37557000  0.78749550  1
  H  193  1  0.34756700  0.37347200  0.70030400  1
  H  195  1  0.69541950  0.53274750  0.62909150  1
  H  206  1  0.37438650  0.54951250  0.11460200  1
  H  207  1  0.59494800  0.44765400  0.18949100  1
  H  208  1  0.69058650  0.57348050  0.19328600  1
  H  210  1  0.51295550  0.75304850  0.12626000  1
  H  211  1  0.41706500  0.69454700  0.13358100  1
  H  212  1  0.45599850  0.69613650  0.09139500  1
  H  214  1  0.41112550  0.38334550  0.15109400  1
  H  216  1  0.73652600  0.70507100  0.17889300  1
  H  227  1  0.50671900  0.88011000  0.75031200  1
  H  228  1  0.60556100  0.12073900  0.88132900  1
  H  229  1  0.48251150  0.06494450  0.90119900  1
  H  231  1  0.30761400  0.77628900  0.78146600  1
  H  232  1  0.37608850  0.75350950  0.77021900  1
  H  233  1  0.35324000  0.80419700  0.73991500  1
  H  235  1  0.67362000  0.05319100  0.80818500  1
  H  237  1  0.35773300  0.96791900  0.89967000  1
  H  248  1  0.16336100  0.61871700  0.41665800  1
  H  249  1  0.92250200  0.47763600  0.54759600  1
  H  250  1  0.98016000  0.41290500  0.56856700  1
  H  252  1  0.27006250  0.52769950  0.44952900  1
  H  253  1  0.29111300  0.61806000  0.43746700  1
  H  254  1  0.24180100  0.54331000  0.40759500  1
  H  256  1  0.98799950  0.61022850  0.47312100  1
  H  258  1  0.07777250  0.38571850  0.56735300  1
  H  269  1  0.00445750  0.21738650  0.16778050  1
  H  270  1  0.92431850  0.92172550  0.07222200  1
  H  271  1  0.99231050  0.99824750  0.02344400  1
  H  273  1  0.11104950  0.34693250  0.09197900  1
  H  274  1  0.12554100  0.34221500  0.13804900  1
  H  275  1  0.04318000  0.33831700  0.12281000  1
  H  277  1  0.90469200  0.91552900  0.13811400  1
  H  279  1  0.11864850  0.14958250  0.02094800  1
  H  290  1  0.26582750  0.04533150  0.49150300  1
  H  291  1  0.04529850  0.12763050  0.40173100  1
  H  292  1  0.04664050  0.05628750  0.35262000  1
  H  294  1  0.27753550  0.93277450  0.41533900  1
  H  295  1  0.26323200  0.92122100  0.46182900  1
  H  296  1  0.34101200  0.00167900  0.44458400  1
  H  298  1  0.06553900  0.14547000  0.46897000  1
  H  300  1  0.06711450  0.93156250  0.34602000  1
  H  311  1  0.82623450  0.77040050  0.83261000  1
  H  312  1  0.11894350  0.98207450  0.73452500  1
  H  313  1  0.04090600  0.97840100  0.68737200  1
  H  315  1  0.69400400  0.75539300  0.75972550  1
  H  316  1  0.70240300  0.77319000  0.80600500  1
  H  317  1  0.70171850  0.69344050  0.78912300  1
  H  319  1  0.12263000  0.96749700  0.80255200  1
  H  321  1  0.88968300  0.95648700  0.68747000  1
  H  332  1  0.02869650  0.83350950  0.17237600  1
  H  333  1  0.19461350  0.15318050  0.08857500  1
  H  334  1  0.19498550  0.09323850  0.03503300  1
  H  336  1  0.02771200  0.72783400  0.09054800  1
  H  337  1  0.96272950  0.71581150  0.12380600  1
  H  338  1  0.05168200  0.73156200  0.13583600  1
  H  340  1  0.12058500  0.07433700  0.17263100  1
  H  342  1  0.15011900  0.93489300  0.00575300  1
  H  353  1  0.84843150  0.01090650  0.50896300  1
  H  354  1  0.00158050  0.85584150  0.41599400  1
  H  355  1  0.93795200  0.85838000  0.36407300  1
  H  357  1  0.73736150  0.01494550  0.43058900  1
  H  358  1  0.79123250  0.07793650  0.46431800  1
  H  359  1  0.72047450  0.98718350  0.47554800  1
  H  361  1  0.00512300  0.92676600  0.50114800  1
  H  363  1  0.82303050  0.90571550  0.33902800  1
  H  374  1  0.21446400  0.18969200  0.83696600  1
  H  375  1  0.89413450  0.02817250  0.75388800  1
  H  376  1  0.95251300  0.08917900  0.70016600  1
  H  378  1  0.31803900  0.29528000  0.75502500  1
  H  379  1  0.33199350  0.24423550  0.78858700  1
  H  380  1  0.31352650  0.31586350  0.80018300  1
  H  382  1  0.97260450  0.03405950  0.83738400  1
  H  384  1  0.10847300  0.20642000  0.67067600  1
  N  19  1  0.93581900  0.31500900  0.00272500  1
  N  20  1  0.05307950  0.17505850  0.99676300  1
  N  21  1  0.70685050  0.09894250  0.85737100  1
  N  22  1  0.91218400  0.07827700  0.82236900  1
  N  41  1  0.41539550  0.08372350  0.33150500  1
  N  42  1  0.16262300  0.99210200  0.32437200  1
  N  43  1  0.44794250  0.34846450  0.19280800  1
  N  44  1  0.22412800  0.13951800  0.15730800  1
  N  63  1  0.72462300  0.60946800  0.66654400  1
  N  64  1  0.86372900  0.86654900  0.66200300  1
  N  65  1  0.94264800  0.59901900  0.52237900  1
  N  66  1  0.95702500  0.82186000  0.48605300  1
  N  85  1  0.11274050  0.73134150  0.01688800  1
  N  86  1  0.94292800  0.81034100  0.99065500  1
  N  87  1  0.30426750  0.91808650  0.85393200  1
  N  88  1  0.06942750  0.86020650  0.81375300  1
  N  107  1  0.65123700  0.91480700  0.35595500  1
  N  108  1  0.89059000  0.10487600  0.32779800  1
  N  109  1  0.66716400  0.74010200  0.19602900  1
  N  110  1  0.85913950  0.97378450  0.15426200  1
  N  129  1  0.30943450  0.37048450  0.68232600  1
  N  130  1  0.23392500  0.12240400  0.65525500  1
  N  131  1  0.12397600  0.37883200  0.52104300  1
  N  132  1  0.17318750  0.19713250  0.47917800  1
  N  139  1  0.87029700  0.42781600  0.04817300  1
  N  142  1  0.95661850  0.57446950  0.05907100  1
  N  160  1  0.63714850  0.17216150  0.35899600  1
  N  163  1  0.68917750  0.08257950  0.37790800  1
  N  181  1  0.61473400  0.43787600  0.71258200  1
  N  184  1  0.46862000  0.37763200  0.72508800  1
  N  202  1  0.54220450  0.65374550  0.14726500  1
  N  205  1  0.43867300  0.51159500  0.13754600  1
  N  223  1  0.40304850  0.89604750  0.81193200  1
  N  226  1  0.54296950  0.96171450  0.78839400  1
  N  244  1  0.14921100  0.50179700  0.47937700  1
  N  247  1  0.08157150  0.57326750  0.45463800  1
  N  265  1  0.05028750  0.20691150  0.08488100  1
  N  268  1  0.97529850  0.12107950  0.14053300  1
  N  286  1  0.20027250  0.99623050  0.41007800  1
  N  289  1  0.19771950  0.07545550  0.46591400  1
  N  307  1  0.83387400  0.83053600  0.75067200  1
  N  310  1  0.92159100  0.83566900  0.80432400  1
  N  328  1  0.07795150  0.86760350  0.08796100  1
  N  331  1  0.07776000  0.93602900  0.14867300  1
  N  349  1  0.82967250  0.96866150  0.42350700  1
  N  352  1  0.90261850  0.96616450  0.48210500  1
  N  370  1  0.17885950  0.20302350  0.75254500  1
  N  373  1  0.11203050  0.13338450  0.81335000  1
