# generated using pymatgen
data_H30C47N10
_symmetry_space_group_name_H-M   'P 1'
_cell_length_a   25.08250000
_cell_length_b   52.11048764
_cell_length_c   52.10930000
_cell_angle_alpha   119.99973824
_cell_angle_beta   90.00000000
_cell_angle_gamma   89.67800240
_symmetry_Int_Tables_number   1
_chemical_formula_structural   H30C47N10
_chemical_formula_sum   'H180 C282 N60'
_cell_volume   58983.94692988
_cell_formula_units_Z   6
loop_
 _symmetry_equiv_pos_site_id
 _symmetry_equiv_pos_as_xyz
  1  'x, y, z'
loop_
 _atom_site_type_symbol
 _atom_site_label
 _atom_site_symmetry_multiplicity
 _atom_site_fract_x
 _atom_site_fract_y
 _atom_site_fract_z
 _atom_site_occupancy
  H  25  1  0.57794900  0.49413700  0.41717300  1
  H  26  1  0.62723100  0.49412300  0.37778900  1
  H  27  1  0.68336000  0.50243500  0.34405600  1
  H  28  1  0.74466600  0.51717500  0.31866400  1
  H  29  1  0.80707100  0.58307700  0.40062800  1
  H  30  1  0.66931500  0.56599300  0.48039600  1
  H  31  1  0.65264200  0.60340400  0.42447700  1
  H  32  1  0.70905000  0.68718300  0.48999000  1
  H  33  1  0.77746500  0.66364800  0.50341300  1
  H  34  1  0.80413300  0.52768500  0.44059000  1
  H  35  1  0.83940100  0.63158300  0.51118400  1
  H  36  1  0.89298500  0.59370300  0.51182700  1
  H  66  1  0.24563900  0.92481900  0.51197200  1
  H  67  1  0.29507700  0.88547900  0.51222400  1
  H  68  1  0.35148000  0.84348600  0.50420300  1
  H  69  1  0.41289000  0.80313900  0.48955100  1
  H  70  1  0.47574800  0.81825500  0.42299200  1
  H  71  1  0.33771700  0.91536400  0.43969600  1
  H  72  1  0.32095200  0.82264500  0.40294300  1
  H  73  1  0.37812400  0.80366000  0.31886700  1
  H  74  1  0.44688300  0.84002600  0.34205500  1
  H  75  1  0.47209600  0.91384100  0.47793600  1
  H  76  1  0.50869200  0.87963800  0.37383900  1
  H  77  1  0.56166200  0.91820600  0.41145700  1
  H  107  1  0.91028700  0.59160300  0.08463400  1
  H  108  1  0.95921100  0.63093800  0.12400400  1
  H  109  1  0.01554600  0.66462500  0.16583400  1
  H  110  1  0.07727500  0.68995500  0.20569400  1
  H  111  1  0.14069100  0.60791000  0.18982000  1
  H  112  1  0.00293900  0.52828000  0.09326900  1
  H  113  1  0.98563200  0.58383600  0.18623500  1
  H  114  1  0.04336600  0.51811700  0.20430900  1
  H  115  1  0.11220900  0.50500500  0.16769500  1
  H  116  1  0.13700700  0.56802300  0.09476600  1
  H  117  1  0.17420100  0.49739500  0.12803500  1
  H  118  1  0.22740700  0.49677200  0.08953900  1
  H  148  1  0.07804100  0.51066100  0.59160800  1
  H  149  1  0.12716000  0.51078100  0.63109400  1
  H  150  1  0.18350700  0.50271400  0.66494500  1
  H  151  1  0.24515600  0.48817000  0.69049800  1
  H  152  1  0.30875600  0.42177800  0.60867900  1
  H  153  1  0.17088400  0.43854300  0.52857500  1
  H  154  1  0.15373200  0.40152600  0.58430700  1
  H  155  1  0.21159900  0.31754500  0.51895700  1
  H  156  1  0.28048500  0.34083400  0.50589500  1
  H  157  1  0.30486100  0.47672900  0.56830000  1
  H  158  1  0.34228200  0.37270000  0.49814800  1
  H  159  1  0.39518400  0.41039800  0.49729900  1
  H  189  1  0.74364700  0.08277200  0.49538000  1
  H  190  1  0.79255100  0.12223300  0.49559700  1
  H  191  1  0.84870800  0.16416200  0.50395200  1
  H  192  1  0.91024600  0.20405300  0.51863100  1
  H  193  1  0.97331900  0.18762700  0.58434900  1
  H  194  1  0.83580400  0.09092100  0.56703400  1
  H  195  1  0.81863600  0.18431100  0.60484100  1
  H  196  1  0.87574400  0.20214700  0.68849900  1
  H  197  1  0.94433800  0.16523800  0.66483800  1
  H  198  1  0.97014600  0.09252900  0.52885400  1
  H  199  1  0.00630000  0.12543300  0.63266200  1
  H  200  1  0.05985200  0.08697300  0.59467700  1
  H  230  1  0.41231200  0.41715900  0.92674800  1
  H  231  1  0.46181400  0.37764200  0.88737200  1
  H  232  1  0.51797700  0.34376600  0.84524100  1
  H  233  1  0.57918500  0.31817700  0.80486500  1
  H  234  1  0.64168400  0.39993400  0.82048600  1
  H  235  1  0.50377200  0.48013100  0.91766300  1
  H  236  1  0.48731400  0.42405600  0.82456800  1
  H  237  1  0.54368100  0.48930000  0.80584700  1
  H  238  1  0.61215800  0.50266900  0.84254000  1
  H  239  1  0.63857100  0.44032900  0.91611100  1
  H  240  1  0.67395500  0.51054300  0.88230800  1
  H  241  1  0.72730100  0.51135400  0.92083400  1
  H  257  1  0.91633900  0.64148700  0.37660900  1
  H  258  1  0.91252300  0.52151100  0.23080200  1
  H  259  1  0.85813100  0.51131700  0.26156800  1
  H  262  1  0.01933700  0.65554700  0.34403300  1
  H  263  1  0.91975000  0.68411900  0.33965400  1
  H  264  1  0.97028400  0.66831900  0.31190800  1
  H  265  1  0.98407900  0.69982600  0.34679500  1
  H  267  1  0.01238000  0.57176100  0.25528900  1
  H  269  1  0.84102700  0.52076000  0.31080400  1
  H  280  1  0.58633700  0.73495400  0.36497400  1
  H  281  1  0.57936400  0.71084300  0.48602800  1
  H  282  1  0.52554900  0.75210200  0.49585000  1
  H  285  1  0.68871600  0.68759600  0.35123000  1
  H  286  1  0.58907600  0.65534500  0.32304500  1
  H  287  1  0.63900200  0.64323200  0.33899100  1
  H  288  1  0.65357700  0.64610300  0.30723800  1
  H  290  1  0.67982200  0.68374400  0.43553500  1
  H  292  1  0.50982800  0.79173800  0.48583500  1
  H  303  1  0.25148400  0.63238000  0.27219400  1
  H  304  1  0.24654400  0.77751600  0.29613300  1
  H  305  1  0.19154400  0.74667900  0.25562200  1
  H  308  1  0.35516000  0.66484300  0.31817700  1
  H  309  1  0.25620000  0.67017800  0.35175900  1
  H  310  1  0.30666700  0.69763200  0.36315400  1
  H  311  1  0.32078400  0.66288000  0.36019000  1
  H  313  1  0.34728100  0.75303100  0.32206900  1
  H  315  1  0.17394600  0.69735100  0.21637800  1
  H  326  1  0.42218400  0.36461200  0.63343500  1
  H  327  1  0.41207300  0.48504800  0.77893500  1
  H  328  1  0.35746400  0.49461300  0.74770200  1
  H  331  1  0.52553300  0.35152000  0.66673100  1
  H  332  1  0.42713100  0.32234000  0.67073000  1
  H  333  1  0.47675700  0.33860200  0.69873900  1
  H  334  1  0.49217400  0.30709900  0.66400600  1
  H  336  1  0.51428900  0.43508300  0.75509100  1
  H  338  1  0.34192300  0.48477300  0.69810800  1
  H  349  1  0.08590300  0.26854400  0.64182100  1
  H  350  1  0.07831600  0.29550500  0.52259400  1
  H  351  1  0.02311300  0.25503500  0.51270200  1
  H  354  1  0.18988600  0.31417900  0.65513900  1
  H  355  1  0.09161200  0.34805000  0.68484600  1
  H  356  1  0.14175600  0.35964300  0.66868900  1
  H  357  1  0.15654700  0.35586400  0.69990600  1
  H  359  1  0.18014600  0.32025400  0.57235200  1
  H  361  1  0.00657500  0.21502600  0.52191800  1
  H  372  1  0.75433200  0.37556700  0.73860000  1
  H  373  1  0.74416700  0.22942300  0.71153300  1
  H  374  1  0.69024700  0.26064500  0.75276900  1
  H  377  1  0.85693100  0.34198000  0.69153500  1
  H  378  1  0.75798200  0.33919300  0.65904000  1
  H  379  1  0.80747200  0.31079100  0.64670600  1
  H  380  1  0.82286500  0.34562900  0.65037900  1
  H  382  1  0.84586300  0.25322300  0.68562100  1
  H  384  1  0.67580400  0.31019600  0.79316700  1
  H  395  1  0.13540900  0.56688800  0.55240100  1
  H  396  1  0.91209600  0.48349800  0.47451700  1
  H  397  1  0.95850500  0.45982400  0.49710100  1
  H  400  1  0.06382300  0.61306300  0.53484100  1
  H  401  1  0.16037900  0.58212500  0.49965000  1
  H  402  1  0.13882100  0.61823000  0.50943100  1
  H  403  1  0.10040700  0.58726100  0.48441100  1
  H  405  1  0.95576400  0.54887900  0.47280000  1
  H  407  1  0.01772700  0.47771900  0.54606200  1
  H  418  1  0.80434500  0.98649400  0.43911100  1
  H  419  1  0.57810400  0.99208800  0.52131000  1
  H  420  1  0.62353200  0.03838400  0.54511500  1
  H  423  1  0.73487500  0.92332400  0.39238100  1
  H  424  1  0.82719100  0.91709300  0.42461600  1
  H  425  1  0.80781000  0.89149200  0.38797200  1
  H  426  1  0.76611400  0.89750800  0.41799300  1
  H  428  1  0.62414200  0.92499800  0.45600300  1
  H  430  1  0.68315000  0.06949900  0.52768100  1
  H  441  1  0.46909000  0.45545700  0.02175400  1
  H  442  1  0.24519200  0.53449800  0.01683600  1
  H  443  1  0.29160000  0.51199200  0.97057800  1
  H  446  1  0.39738900  0.47328800  0.08566800  1
  H  447  1  0.49508500  0.50686700  0.08919900  1
  H  448  1  0.47334000  0.49749400  0.11570400  1
  H  449  1  0.43575500  0.52312500  0.10997400  1
  H  451  1  0.28934300  0.53579900  0.08372300  1
  H  453  1  0.35120900  0.46276000  0.93930200  1
  H  464  1  0.63562700  0.43692000  0.45480000  1
  H  465  1  0.41217300  0.52083300  0.53459800  1
  H  466  1  0.45782300  0.54474600  0.51218700  1
  H  469  1  0.56530200  0.39033900  0.47138200  1
  H  470  1  0.65974700  0.42105800  0.50819700  1
  H  471  1  0.63918500  0.38463200  0.49724000  1
  H  472  1  0.59910300  0.41514400  0.52221900  1
  H  474  1  0.45726500  0.45497200  0.53537100  1
  H  476  1  0.51680900  0.52682100  0.46275800  1
  H  487  1  0.29988500  0.01910800  0.56917200  1
  H  488  1  0.07947600  0.01479700  0.48392200  1
  H  489  1  0.12615100  0.96851700  0.46025800  1
  H  492  1  0.22725900  0.08289000  0.61504700  1
  H  493  1  0.32613100  0.08676100  0.58579600  1
  H  494  1  0.30331400  0.11305600  0.62160500  1
  H  495  1  0.26685700  0.10754600  0.59009400  1
  H  497  1  0.12219600  0.08153700  0.54970400  1
  H  499  1  0.18483000  0.93712400  0.47866600  1
  H  510  1  0.96833900  0.55316800  0.98947200  1
  H  511  1  0.74567200  0.47434200  0.99409400  1
  H  512  1  0.79130100  0.49684700  0.04043100  1
  H  515  1  0.89805900  0.53696300  0.92657100  1
  H  516  1  0.99100600  0.49835400  0.91950700  1
  H  517  1  0.97075800  0.50987800  0.89434100  1
  H  518  1  0.92967300  0.48559400  0.90006800  1
  H  520  1  0.79030200  0.47316000  0.92727100  1
  H  522  1  0.84991900  0.54621400  0.07174700  1
  C  1  1  0.78035100  0.57195000  0.45472200  1
  C  2  1  0.79103800  0.60168300  0.47528700  1
  C  3  1  0.75479500  0.61984100  0.47169500  1
  C  4  1  0.71915100  0.60224800  0.44907200  1
  C  5  1  0.67872200  0.61608500  0.44105800  1
  C  6  1  0.67551300  0.64747000  0.45549500  1
  C  7  1  0.71163800  0.66453000  0.47869400  1
  C  8  1  0.75144300  0.65093500  0.48682600  1
  C  9  1  0.83247000  0.60985700  0.49600000  1
  C  10  1  0.86378100  0.58754200  0.49613100  1
  C  11  1  0.85493800  0.55716500  0.47558400  1
  C  12  1  0.81220900  0.54946200  0.45507100  1
  C  13  1  0.68888300  0.55126400  0.43553300  1
  C  14  1  0.67651800  0.53026400  0.40618300  1
  C  15  1  0.71046300  0.53367700  0.38709300  1
  C  16  1  0.74596100  0.55676100  0.40365800  1
  C  17  1  0.71033400  0.51874400  0.35597700  1
  C  18  1  0.74645700  0.52750500  0.34128400  1
  C  19  1  0.78351800  0.55061500  0.35717000  1
  C  20  1  0.78231300  0.56555600  0.38864200  1
  C  21  1  0.65951600  0.55135900  0.45889800  1
  C  22  1  0.61715100  0.53099400  0.45249800  1
  C  23  1  0.60633800  0.51003800  0.42244600  1
  C  24  1  0.63535700  0.50967500  0.39925000  1
  C  37  1  0.73376200  0.57027900  0.43595800  1
  C  42  1  0.44901600  0.88344700  0.43378000  1
  C  43  1  0.46006300  0.87402000  0.40398000  1
  C  44  1  0.42391800  0.85240000  0.38598400  1
  C  45  1  0.38798400  0.84771200  0.40375400  1
  C  46  1  0.34730900  0.82623500  0.39012100  1
  C  47  1  0.34413200  0.80927600  0.35874800  1
  C  48  1  0.38067600  0.81499800  0.34150600  1
  C  49  1  0.42069700  0.83638000  0.35490400  1
  C  50  1  0.50153100  0.88634000  0.39561200  1
  C  51  1  0.53251000  0.90881000  0.41778300  1
  C  52  1  0.52332800  0.91891200  0.44823300  1
  C  53  1  0.48052800  0.90632100  0.45611700  1
  C  54  1  0.35732000  0.88546400  0.45474400  1
  C  55  1  0.34478600  0.87736700  0.47592900  1
  C  56  1  0.37873400  0.85478500  0.47257800  1
  C  57  1  0.41430600  0.84789800  0.44929100  1
  C  58  1  0.37850300  0.83882400  0.48773700  1
  C  59  1  0.41470400  0.81525600  0.47904100  1
  C  60  1  0.45193000  0.80770900  0.45577700  1
  C  61  1  0.45083400  0.82401800  0.44060500  1
  C  62  1  0.32786500  0.90870400  0.45449500  1
  C  63  1  0.28530500  0.92290000  0.47493900  1
  C  64  1  0.27426900  0.91404600  0.49606600  1
  C  65  1  0.30340100  0.89125100  0.49658100  1
  C  78  1  0.40235300  0.86661800  0.43566600  1
  C  83  1  0.11388300  0.55388800  0.12488900  1
  C  84  1  0.12514200  0.53332800  0.13406700  1
  C  85  1  0.08894500  0.53686700  0.15574900  1
  C  86  1  0.05282300  0.55948200  0.16075700  1
  C  87  1  0.01213300  0.56730800  0.18240400  1
  C  88  1  0.00909500  0.55268400  0.19916700  1
  C  89  1  0.04580200  0.52955400  0.19310100  1
  C  90  1  0.08587900  0.52160700  0.17157700  1
  C  91  1  0.16686500  0.51258800  0.12150100  1
  C  92  1  0.19796300  0.51247500  0.09907700  1
  C  93  1  0.18858200  0.53304400  0.08926700  1
  C  94  1  0.14550300  0.55354300  0.10206300  1
  C  95  1  0.02200100  0.57312400  0.12336700  1
  C  96  1  0.00914700  0.60248900  0.13172700  1
  C  97  1  0.04298000  0.62154200  0.15421300  1
  C  98  1  0.07876600  0.60494200  0.16077600  1
  C  99  1  0.04268100  0.65266200  0.17026700  1
  C  100  1  0.07908900  0.66731900  0.19354300  1
  C  101  1  0.11663400  0.65139500  0.20070300  1
  C  102  1  0.11550600  0.61991900  0.18435700  1
  C  103  1  0.99284000  0.54978900  0.10010800  1
  C  104  1  0.95026400  0.55624200  0.08612600  1
  C  105  1  0.93892100  0.58630100  0.09523800  1
  C  106  1  0.96775300  0.60946500  0.11805500  1
  C  119  1  0.06704500  0.57265100  0.14196800  1
  C  124  1  0.28198800  0.43254200  0.55442100  1
  C  125  1  0.29331000  0.40276200  0.53399700  1
  C  126  1  0.25717300  0.38472100  0.53757600  1
  C  127  1  0.22097200  0.40243900  0.56005400  1
  C  128  1  0.18029300  0.38874300  0.56788000  1
  C  129  1  0.17727500  0.35736600  0.55336400  1
  C  130  1  0.21403900  0.34018300  0.53034400  1
  C  131  1  0.25413500  0.35364000  0.52242300  1
  C  132  1  0.33495800  0.39445600  0.51328000  1
  C  133  1  0.36587600  0.41667100  0.51302700  1
  C  134  1  0.35644700  0.44709700  0.53345400  1
  C  135  1  0.31345200  0.45492500  0.55394400  1
  C  136  1  0.19007300  0.45344900  0.57348100  1
  C  137  1  0.17721500  0.47454500  0.60280000  1
  C  138  1  0.21108000  0.47115400  0.62195800  1
  C  139  1  0.24690300  0.44792500  0.60547300  1
  C  140  1  0.21069400  0.48628300  0.65307700  1
  C  141  1  0.24705000  0.47765400  0.66786500  1
  C  142  1  0.28461900  0.45450100  0.65207200  1
  C  143  1  0.28359800  0.43932100  0.62059000  1
  C  144  1  0.16080900  0.45328300  0.55005600  1
  C  145  1  0.11809700  0.47369800  0.55638800  1
  C  146  1  0.10677000  0.49475700  0.58640100  1
  C  147  1  0.13571600  0.49519700  0.60965200  1
  C  160  1  0.23518100  0.43436300  0.57315000  1
  C  165  1  0.94661200  0.12256000  0.57315700  1
  C  166  1  0.95756400  0.13162000  0.60286500  1
  C  167  1  0.92131700  0.15335800  0.62108100  1
  C  168  1  0.88538400  0.15847100  0.60355300  1
  C  169  1  0.84491200  0.18033700  0.61746900  1
  C  170  1  0.84183000  0.19714200  0.64886000  1
  C  171  1  0.87823000  0.19090200  0.66584600  1
  C  172  1  0.91813900  0.16919500  0.65217500  1
  C  173  1  0.99917100  0.11896900  0.61095500  1
  C  174  1  0.03048100  0.09657500  0.58858400  1
  C  175  1  0.02140700  0.08689000  0.55823700  1
  C  176  1  0.97840500  0.09974400  0.55061400  1
  C  177  1  0.85491600  0.12122100  0.55252100  1
  C  178  1  0.84222900  0.12972900  0.53163700  1
  C  179  1  0.87606700  0.15222200  0.53512700  1
  C  180  1  0.91180100  0.15858400  0.55815300  1
  C  181  1  0.87579400  0.16845700  0.52024800  1
  C  182  1  0.91210800  0.19174400  0.52894500  1
  C  183  1  0.94947200  0.19877300  0.55196200  1
  C  184  1  0.94832900  0.18223600  0.56689600  1
  C  185  1  0.82577800  0.09789500  0.55248200  1
  C  186  1  0.78333900  0.08402800  0.53209100  1
  C  187  1  0.77213800  0.09330400  0.51127900  1
  C  188  1  0.80096500  0.11617800  0.51103800  1
  C  201  1  0.89985000  0.13972500  0.57157100  1
  C  206  1  0.61504900  0.45421900  0.88580400  1
  C  207  1  0.62576100  0.47468100  0.87649100  1
  C  208  1  0.58953500  0.47107400  0.85482800  1
  C  209  1  0.55387200  0.44854700  0.85000300  1
  C  210  1  0.51340800  0.44056300  0.82830700  1
  C  211  1  0.51013500  0.45494600  0.81131400  1
  C  212  1  0.54629600  0.47804100  0.81723500  1
  C  213  1  0.58614600  0.48614000  0.83880700  1
  C  214  1  0.66707900  0.49539100  0.88890800  1
  C  215  1  0.69825900  0.49562000  0.91136300  1
  C  216  1  0.68943400  0.47516500  0.92132800  1
  C  217  1  0.64674200  0.45469700  0.90867600  1
  C  218  1  0.52355500  0.43521000  0.88765000  1
  C  219  1  0.51122000  0.40590200  0.87943800  1
  C  220  1  0.54518800  0.38671800  0.85686000  1
  C  221  1  0.58068400  0.40317200  0.85014900  1
  C  222  1  0.54502500  0.35560200  0.84075000  1
  C  223  1  0.58106600  0.34079300  0.81713800  1
  C  224  1  0.61812200  0.35656100  0.80971500  1
  C  225  1  0.61698000  0.38803700  0.82619400  1
  C  226  1  0.49406400  0.45865600  0.91091900  1
  C  227  1  0.45163900  0.45235300  0.92501000  1
  C  228  1  0.44082700  0.42234600  0.91605200  1
  C  229  1  0.46999900  0.39907600  0.89323400  1
  C  242  1  0.56847200  0.43550100  0.86889300  1
  C  247  1  0.93580600  0.56478600  0.26380600  1
  C  248  1  0.92988400  0.58566600  0.29442700  1
  C  249  1  0.89746900  0.57945300  0.31319100  1
  C  250  1  0.87100200  0.55188000  0.30171600  1
  C  251  1  0.87604600  0.53164500  0.27091800  1
  C  252  1  0.90774400  0.53783000  0.25245000  1
  C  254  1  0.92014800  0.62668100  0.35448400  1
  C  255  1  0.95184000  0.63299800  0.33609300  1
  C  261  1  0.96228000  0.67901200  0.33571800  1
  C  266  1  0.97590000  0.56721900  0.24660800  1
  C  268  1  0.84267700  0.54256700  0.31871200  1
  C  270  1  0.60342900  0.69989600  0.44258100  1
  C  271  1  0.59815000  0.70934700  0.42144600  1
  C  272  1  0.56607600  0.73449400  0.42742700  1
  C  273  1  0.53933500  0.75104800  0.45501200  1
  C  274  1  0.54370900  0.74078800  0.47550800  1
  C  275  1  0.57505400  0.71596300  0.46954400  1
  C  277  1  0.58967800  0.72783400  0.37995500  1
  C  278  1  0.62102300  0.70295000  0.37385400  1
  C  284  1  0.63151800  0.65621000  0.32809700  1
  C  289  1  0.64318100  0.68002600  0.44028400  1
  C  291  1  0.51131500  0.77751300  0.46408100  1
  C  293  1  0.27053300  0.74477600  0.30679900  1
  C  294  1  0.26473200  0.71426500  0.29746200  1
  C  295  1  0.23193200  0.69545300  0.27276100  1
  C  296  1  0.20494000  0.70675000  0.25652300  1
  C  297  1  0.20986000  0.73745100  0.26670000  1
  C  298  1  0.24192700  0.75596800  0.29108800  1
  C  300  1  0.25523100  0.65442600  0.27921400  1
  C  301  1  0.28727000  0.67286700  0.30366400  1
  C  307  1  0.29866100  0.67384900  0.35032500  1
  C  312  1  0.31080900  0.76192400  0.32616100  1
  C  314  1  0.17611500  0.68965600  0.23044900  1
  C  316  1  0.43761300  0.44192600  0.74620700  1
  C  317  1  0.43276500  0.42084600  0.71559900  1
  C  318  1  0.40020800  0.42668300  0.69656800  1
  C  319  1  0.37247100  0.45404000  0.70776800  1
  C  320  1  0.37635800  0.47443500  0.73856000  1
  C  321  1  0.40826100  0.46864100  0.75728000  1
  C  323  1  0.42521000  0.37953200  0.65555600  1
  C  324  1  0.45702900  0.37356700  0.67420300  1
  C  330  1  0.46940900  0.32775800  0.67488100  1
  C  335  1  0.47763000  0.43980500  0.76366300  1
  C  337  1  0.34398000  0.46301300  0.69048800  1
  C  339  1  0.10331000  0.30515200  0.56547800  1
  C  340  1  0.09792300  0.29530800  0.58629100  1
  C  341  1  0.06500000  0.27063400  0.58025300  1
  C  342  1  0.03740600  0.25498000  0.55295100  1
  C  343  1  0.04189100  0.26569000  0.53282600  1
  C  344  1  0.07407000  0.29006000  0.53884400  1
  C  346  1  0.08932000  0.27596700  0.62709100  1
  C  347  1  0.12149400  0.30038700  0.63325000  1
  C  353  1  0.13396100  0.34647500  0.67932100  1
  C  358  1  0.14368900  0.32445600  0.56769800  1
  C  360  1  0.00869600  0.22886300  0.54372500  1
  C  362  1  0.76931800  0.26236000  0.70153200  1
  C  363  1  0.76457700  0.29309300  0.71150600  1
  C  364  1  0.73243900  0.31211900  0.73664600  1
  C  365  1  0.70506200  0.30077500  0.75264500  1
  C  366  1  0.70884500  0.26988700  0.74184000  1
  C  367  1  0.74028700  0.25116700  0.71703200  1
  C  369  1  0.75726300  0.35336400  0.73108500  1
  C  370  1  0.78869000  0.33472600  0.70621500  1
  C  376  1  0.80028800  0.33468200  0.66002600  1
  C  381  1  0.80923200  0.24479800  0.68181500  1
  C  383  1  0.67721500  0.31799400  0.77916500  1
  C  385  1  0.96537500  0.51946000  0.48797100  1
  C  386  1  0.01320900  0.53159800  0.50420900  1
  C  387  1  0.04075900  0.51744300  0.51774200  1
  C  388  1  0.02222800  0.49040100  0.51473600  1
  C  389  1  0.97465800  0.47851600  0.49856200  1
  C  390  1  0.94698300  0.49263200  0.48537800  1
  C  392  1  0.10268800  0.55766200  0.53937300  1
  C  393  1  0.07677300  0.57142600  0.52552900  1
  C  399  1  0.12526200  0.59629800  0.50424000  1
  C  404  1  0.93584800  0.53512700  0.47734800  1
  C  406  1  0.04294400  0.47926100  0.53212800  1
  C  408  1  0.63260600  0.96953300  0.48563300  1
  C  409  1  0.68083600  0.97366200  0.47374400  1
  C  410  1  0.70782800  0.00137600  0.48798300  1
  C  411  1  0.68831100  0.02545300  0.51488100  1
  C  412  1  0.64036700  0.02114200  0.52652900  1
  C  413  1  0.61326600  0.99381200  0.51233000  1
  C  415  1  0.77128500  0.98271300  0.44816000  1
  C  416  1  0.74591400  0.95508900  0.43432000  1
  C  422  1  0.79304300  0.90818900  0.40973900  1
  C  427  1  0.60368700  0.94317600  0.46988300  1
  C  429  1  0.70857000  0.05401100  0.52610100  1
  C  431  1  0.29865300  0.52063000  0.03915900  1
  C  432  1  0.34658000  0.50417500  0.03495600  1
  C  433  1  0.37414900  0.49070800  0.00727500  1
  C  434  1  0.35552200  0.49398200  0.98335300  1
  C  435  1  0.30782300  0.51034100  0.98773600  1
  C  436  1  0.28015400  0.52347700  0.01503200  1
  C  438  1  0.43628500  0.46862400  0.02563700  1
  C  439  1  0.41035800  0.48240800  0.05324400  1
  C  445  1  0.45987200  0.50288400  0.09903700  1
  C  450  1  0.26921400  0.53130000  0.06546700  1
  C  452  1  0.37627000  0.47667000  0.95480000  1
  C  454  1  0.46579300  0.48455700  0.52042200  1
  C  455  1  0.51352400  0.47232000  0.50379900  1
  C  456  1  0.54064700  0.48662700  0.49038900  1
  C  457  1  0.52175300  0.51390700  0.49386700  1
  C  458  1  0.47422900  0.52586000  0.51036600  1
  C  459  1  0.44700200  0.51160600  0.52344800  1
  C  461  1  0.60292900  0.44616900  0.46803100  1
  C  462  1  0.57745800  0.43225400  0.48175900  1
  C  468  1  0.62507100  0.40665900  0.50277900  1
  C  473  1  0.43682800  0.46885800  0.53109700  1
  C  475  1  0.54212200  0.52533200  0.47669300  1
  C  477  1  0.13182400  0.03693500  0.52047600  1
  C  478  1  0.17914500  0.03262900  0.53299600  1
  C  479  1  0.20686200  0.00494600  0.51883400  1
  C  480  1  0.18900900  0.98113700  0.49143200  1
  C  481  1  0.14185500  0.98561000  0.47922000  1
  C  482  1  0.11402700  0.01290800  0.49332300  1
  C  484  1  0.26756300  0.02308000  0.55970600  1
  C  485  1  0.24147700  0.05068600  0.57349800  1
  C  491  1  0.29050400  0.09649800  0.59941500  1
  C  496  1  0.10224900  0.06325200  0.53601000  1
  C  498  1  0.20990400  0.95260700  0.48024100  1
  C  500  1  0.79898100  0.48823000  0.97186400  1
  C  501  1  0.84657600  0.50467400  0.97616400  1
  C  502  1  0.87368500  0.51814000  0.00389000  1
  C  503  1  0.85495600  0.51486700  0.02778700  1
  C  504  1  0.80760400  0.49851000  0.02330400  1
  C  505  1  0.78035700  0.48540000  0.99597000  1
  C  507  1  0.93574300  0.54006200  0.98556500  1
  C  508  1  0.91024800  0.52629600  0.95792800  1
  C  514  1  0.95651700  0.50451000  0.91087400  1
  C  519  1  0.77002400  0.47750100  0.94546300  1
  C  521  1  0.87527600  0.53213500  0.05636700  1
  N  38  1  0.81551500  0.55944200  0.34240900  1
  N  39  1  0.88440900  0.53736400  0.47880600  1
  N  40  1  0.63697900  0.66200100  0.45025700  1
  N  41  1  0.59269600  0.52746300  0.47338000  1
  N  79  1  0.48392900  0.78400800  0.44707100  1
  N  80  1  0.55223300  0.94207500  0.46792700  1
  N  81  1  0.30521900  0.78994700  0.34446100  1
  N  82  1  0.26057000  0.94722200  0.47824000  1
  N  120  1  0.14908800  0.66616900  0.22405300  1
  N  121  1  0.21783000  0.52981400  0.06623300  1
  N  122  1  0.97021900  0.55771100  0.21865500  1
  N  123  1  0.92585200  0.53533200  0.06178900  1
  N  161  1  0.31693700  0.44590900  0.66698300  1
  N  162  1  0.38540400  0.46683200  0.53007000  1
  N  163  1  0.13825500  0.34302800  0.55830500  1
  N  164  1  0.09355800  0.47710400  0.53543400  1
  N  202  1  0.98176700  0.22217000  0.56068600  1
  N  203  1  0.05087400  0.06389100  0.53840200  1
  N  204  1  0.80318800  0.21686900  0.66344300  1
  N  205  1  0.75907600  0.05957400  0.52845100  1
  N  243  1  0.64991700  0.34166000  0.78594800  1
  N  244  1  0.71856300  0.47857800  0.94446400  1
  N  245  1  0.47154200  0.44970600  0.79168100  1
  N  246  1  0.42691200  0.47330900  0.94937600  1
  N  253  1  0.89461700  0.60032700  0.34244700  1
  N  256  1  0.95565600  0.61210500  0.30693100  1
  N  260  1  0.97932700  0.66006300  0.34796200  1
  N  276  1  0.56384700  0.74259500  0.40633200  1
  N  279  1  0.62422300  0.69496500  0.39497200  1
  N  283  1  0.64879700  0.68729500  0.34676200  1
  N  299  1  0.22922100  0.66630500  0.26475900  1
  N  302  1  0.29095400  0.70191300  0.31154200  1
  N  306  1  0.31520700  0.66115900  0.31901000  1
  N  322  1  0.39845800  0.40568900  0.66733700  1
  N  325  1  0.45974800  0.39459700  0.70334500  1
  N  329  1  0.48575500  0.34671100  0.66259700  1
  N  345  1  0.06274300  0.26207700  0.60100100  1
  N  348  1  0.12472400  0.30881000  0.61246500  1
  N  352  1  0.15003700  0.31514300  0.66004400  1
  N  368  1  0.73078700  0.34146600  0.74530000  1
  N  371  1  0.79131100  0.30546300  0.69768600  1
  N  375  1  0.81713400  0.34644800  0.69112500  1
  N  391  1  0.08389000  0.53145000  0.53486500  1
  N  394  1  0.03302400  0.55793600  0.50886000  1
  N  398  1  0.09548400  0.59875300  0.52986600  1
  N  414  1  0.75146700  0.00446600  0.47420900  1
  N  417  1  0.70166400  0.95194200  0.44756800  1
  N  421  1  0.76572500  0.93202800  0.40718800  1
  N  437  1  0.41739900  0.47339000  0.00404900  1
  N  440  1  0.36649400  0.49927200  0.05652900  1
  N  444  1  0.42910100  0.47775600  0.07609600  1
  N  460  1  0.58375400  0.47257000  0.47295300  1
  N  463  1  0.53372600  0.44579700  0.49873500  1
  N  467  1  0.59662300  0.40475700  0.47704000  1
  N  483  1  0.24945400  0.00160600  0.53316300  1
  N  486  1  0.19825400  0.05409000  0.55967700  1
  N  490  1  0.25940600  0.07341900  0.60119600  1
  N  506  1  0.91667100  0.53538500  0.00715700  1
  N  509  1  0.86663400  0.50951600  0.95460400  1
  N  513  1  0.92931200  0.53073100  0.93501800  1
