# generated using pymatgen
data_H9C18(N3O2)2
_symmetry_space_group_name_H-M   'P 1'
_cell_length_a   20.92790000
_cell_length_b   37.79150000
_cell_length_c   37.79150000
_cell_angle_alpha   90.00000000
_cell_angle_beta   90.00000000
_cell_angle_gamma   90.00000000
_symmetry_Int_Tables_number   1
_chemical_formula_structural   H9C18(N3O2)2
_chemical_formula_sum   'H144 C288 N96 O64'
_cell_volume   29889.17387950
_cell_formula_units_Z   16
loop_
 _symmetry_equiv_pos_site_id
 _symmetry_equiv_pos_as_xyz
  1  'x, y, z'
loop_
 _atom_site_type_symbol
 _atom_site_label
 _atom_site_symmetry_multiplicity
 _atom_site_fract_x
 _atom_site_fract_y
 _atom_site_fract_z
 _atom_site_occupancy
  C  1  1  0.38050100  0.26766300  0.63526100  1
  C  2  1  0.33815300  0.23892900  0.64169400  1
  C  3  1  0.35887600  0.20342100  0.64055900  1
  C  4  1  0.42395100  0.19632800  0.63435100  1
  C  5  1  0.46805100  0.22376300  0.62747600  1
  C  6  1  0.44521500  0.25897900  0.62773800  1
  C  10  1  0.35831700  0.30391200  0.63428700  1
  C  11  1  0.29479800  0.31235600  0.62388300  1
  C  12  1  0.27211600  0.34753000  0.62191700  1
  C  13  1  0.31504100  0.37512600  0.63023100  1
  C  14  1  0.37910100  0.36827600  0.63926500  1
  C  15  1  0.39969600  0.33282300  0.64182400  1
  C  19  1  0.42124400  0.39617900  0.63645200  1
  C  20  1  0.53218000  0.21656400  0.62069400  1
  C  21  1  0.31687900  0.17564500  0.63584600  1
  C  22  1  0.20866400  0.35457400  0.61340700  1
  C  27  1  0.88135000  0.30770600  0.94078700  1
  C  28  1  0.83874700  0.33633200  0.93438900  1
  C  29  1  0.85918600  0.37189000  0.93547900  1
  C  30  1  0.92424000  0.37913800  0.94157000  1
  C  31  1  0.96859800  0.35180900  0.94837100  1
  C  32  1  0.94605800  0.31653100  0.94814300  1
  C  36  1  0.85940400  0.27142300  0.94185100  1
  C  37  1  0.79607000  0.26289600  0.95252500  1
  C  38  1  0.77348500  0.22770200  0.95446200  1
  C  39  1  0.81633700  0.20017100  0.94581700  1
  C  40  1  0.88024700  0.20710900  0.93649300  1
  C  41  1  0.90078400  0.24258000  0.93406400  1
  C  45  1  0.92232000  0.17914100  0.93885800  1
  C  46  1  0.03268400  0.35919400  0.95506000  1
  C  47  1  0.81698000  0.39958100  0.94014700  1
  C  48  1  0.71012000  0.22060100  0.96312800  1
  C  53  1  0.63074200  0.44286900  0.76755000  1
  C  54  1  0.58839700  0.43628000  0.73884800  1
  C  55  1  0.60921200  0.43710300  0.70334000  1
  C  56  1  0.67430200  0.44321800  0.69625900  1
  C  57  1  0.71836200  0.45033400  0.72364600  1
  C  58  1  0.69547000  0.45034200  0.75885500  1
  C  62  1  0.60861900  0.44382200  0.80380700  1
  C  63  1  0.54515300  0.45430800  0.81229300  1
  C  64  1  0.52235400  0.45598800  0.84746700  1
  C  65  1  0.56518600  0.44733000  0.87500800  1
  C  66  1  0.62915600  0.43816700  0.86810700  1
  C  67  1  0.64992200  0.43595500  0.83266800  1
  C  71  1  0.67110200  0.44023100  0.89617900  1
  C  72  1  0.78250400  0.45699400  0.71636100  1
  C  73  1  0.56728600  0.44106200  0.67543200  1
  C  74  1  0.45888600  0.46448200  0.85457700  1
  C  79  1  0.13256100  0.13384100  0.80770700  1
  C  80  1  0.09019700  0.14051200  0.83638300  1
  C  81  1  0.11108700  0.14021300  0.87187800  1
  C  82  1  0.17627300  0.13448500  0.87899600  1
  C  83  1  0.22038100  0.12734500  0.85163200  1
  C  84  1  0.19746400  0.12687800  0.81642900  1
  C  88  1  0.11021900  0.13219800  0.77151100  1
  C  89  1  0.04681900  0.12133700  0.76333700  1
  C  90  1  0.02362000  0.11920600  0.72826900  1
  C  91  1  0.06610800  0.12768900  0.70051400  1
  C  92  1  0.13005200  0.13717500  0.70707600  1
  C  93  1  0.15114900  0.13983700  0.74242800  1
  C  97  1  0.17156700  0.13518100  0.67882400  1
  C  98  1  0.28453600  0.12090100  0.85898300  1
  C  99  1  0.06940000  0.13552300  0.89976200  1
  C  100  1  0.96008300  0.11051500  0.72149700  1
  C  105  1  0.87413600  0.76666100  0.10110500  1
  C  106  1  0.82977800  0.74039800  0.09036300  1
  C  107  1  0.84490200  0.70409700  0.09209000  1
  C  108  1  0.90593200  0.69367100  0.10392100  1
  C  109  1  0.95212700  0.71900000  0.11398000  1
  C  110  1  0.93487000  0.75518000  0.11317800  1
  C  114  1  0.85892100  0.80362700  0.09855000  1
  C  115  1  0.79657400  0.81619600  0.10623600  1
  C  116  1  0.77965800  0.85223800  0.10248100  1
  C  117  1  0.82761600  0.87635200  0.09199800  1
  C  118  1  0.89018600  0.86490500  0.08422500  1
  C  119  1  0.90518000  0.82868000  0.08735500  1
  C  123  1  0.93429000  0.88898200  0.07190900  1
  C  124  1  0.01393600  0.70918200  0.12303900  1
  C  125  1  0.80348800  0.67888200  0.07940200  1
  C  126  1  0.71755200  0.86333100  0.10932300  1
  C  131  1  0.37406200  0.80899600  0.47739500  1
  C  132  1  0.32981400  0.83606500  0.48620100  1
  C  133  1  0.34586900  0.87218500  0.48341200  1
  C  134  1  0.40833200  0.88178700  0.47339400  1
  C  135  1  0.45485900  0.85585600  0.46572100  1
  C  136  1  0.43618900  0.81986300  0.46675300  1
  C  140  1  0.35708400  0.77205400  0.47985900  1
  C  141  1  0.29351700  0.76022800  0.47385200  1
  C  142  1  0.27542900  0.72425700  0.47701900  1
  C  143  1  0.32367400  0.69924100  0.48458700  1
  C  144  1  0.38740700  0.70976200  0.49026800  1
  C  145  1  0.40320500  0.74595300  0.48868100  1
  C  149  1  0.43190400  0.68470300  0.49958500  1
  C  150  1  0.51775400  0.86495800  0.45796000  1
  C  151  1  0.30395100  0.89822200  0.49363700  1
  C  152  1  0.21220100  0.71401700  0.47176400  1
  C  157  1  0.12450000  0.97409400  0.26706500  1
  C  158  1  0.07972200  0.98593800  0.24151100  1
  C  159  1  0.09412900  0.98549600  0.20506900  1
  C  160  1  0.15455200  0.97338200  0.19385900  1
  C  161  1  0.20093400  0.96201200  0.21850300  1
  C  162  1  0.18461200  0.96186900  0.25481200  1
  C  166  1  0.11058500  0.97600100  0.30418700  1
  C  167  1  0.04874900  0.96797800  0.31728000  1
  C  168  1  0.03305600  0.97137300  0.35352400  1
  C  169  1  0.08165800  0.98182800  0.37724800  1
  C  170  1  0.14370900  0.98999700  0.36521100  1
  C  171  1  0.15756100  0.98719200  0.32882200  1
  C  175  1  0.18812300  0.00275500  0.38886200  1
  C  176  1  0.26223000  0.95279500  0.20795400  1
  C  177  1  0.05261500  0.99958100  0.18061000  1
  C  178  1  0.97134000  0.96450400  0.36516900  1
  C  183  1  0.62396200  0.60247600  0.30811400  1
  C  184  1  0.57941400  0.58959200  0.33327800  1
  C  185  1  0.59347600  0.58953400  0.36976800  1
  C  186  1  0.65309600  0.60253400  0.38133400  1
  C  187  1  0.69919200  0.61493900  0.35703200  1
  C  188  1  0.68340400  0.61531200  0.32066700  1
  C  192  1  0.61062600  0.60086200  0.27098100  1
  C  193  1  0.54916700  0.60942200  0.25778200  1
  C  194  1  0.53386200  0.60621800  0.22149600  1
  C  195  1  0.58227100  0.59525800  0.19789300  1
  C  196  1  0.64396400  0.58649600  0.21010800  1
  C  197  1  0.65762200  0.58932200  0.24653000  1
  C  201  1  0.68806800  0.57310200  0.18662200  1
  C  202  1  0.76000000  0.62458400  0.36796300  1
  C  203  1  0.55260500  0.57419500  0.39386300  1
  C  204  1  0.47250400  0.61353400  0.20974300  1
  C  209  1  0.60727200  0.16899800  0.61163700  1
  C  210  1  0.60839900  0.13209300  0.61672500  1
  C  212  1  0.72226200  0.13173500  0.62000900  1
  C  213  1  0.72463600  0.16872000  0.61351800  1
  C  214  1  0.66618300  0.18697800  0.60911500  1
  C  216  1  0.77503000  0.11394700  0.63456800  1
  C  217  1  0.83267600  0.10799100  0.61593100  1
  C  218  1  0.88816600  0.10059800  0.63600500  1
  C  219  1  0.88636800  0.09999600  0.67332300  1
  C  220  1  0.82668400  0.10398000  0.69012500  1
  C  233  1  0.10728300  0.40685000  0.96472900  1
  C  234  1  0.10824800  0.44376100  0.95965400  1
  C  236  1  0.22215400  0.44431600  0.95663700  1
  C  237  1  0.22466700  0.40733700  0.96317600  1
  C  238  1  0.16627600  0.38898100  0.96743600  1
  C  240  1  0.27484400  0.46211100  0.94197800  1
  C  241  1  0.33269700  0.46799600  0.96044200  1
  C  242  1  0.38805800  0.47524100  0.94020000  1
  C  243  1  0.38594000  0.47575500  0.90288500  1
  C  244  1  0.32605500  0.47193100  0.88626400  1
  C  257  1  0.85752600  0.46540300  0.66858100  1
  C  258  1  0.85845800  0.45999200  0.63171800  1
  C  260  1  0.97232000  0.45664500  0.63121300  1
  C  261  1  0.97487200  0.46344800  0.66814200  1
  C  262  1  0.91652200  0.46804100  0.68645000  1
  C  264  1  0.02495300  0.44179700  0.61353100  1
  C  265  1  0.08283900  0.46019000  0.60753800  1
  C  266  1  0.13823900  0.43987100  0.60061300  1
  C  267  1  0.13613100  0.40255300  0.60055200  1
  C  268  1  0.07619700  0.38598100  0.60439400  1
  C  281  1  0.35904800  0.11093500  0.90663400  1
  C  282  1  0.35984700  0.11574800  0.94358200  1
  C  284  1  0.47372400  0.11894700  0.94428500  1
  C  285  1  0.47640300  0.11269600  0.90726100  1
  C  286  1  0.41810800  0.10847000  0.88880700  1
  C  288  1  0.52632200  0.13351900  0.96223100  1
  C  289  1  0.58417000  0.11501900  0.96802100  1
  C  290  1  0.63962000  0.13522100  0.97517100  1
  C  291  1  0.63759600  0.17253700  0.97564700  1
  C  292  1  0.57768900  0.18919000  0.97203000  1
  C  305  1  0.09800900  0.66803000  0.11458600  1
  C  306  1  0.10557700  0.63116500  0.11797100  1
  C  308  1  0.21839000  0.63708700  0.12506700  1
  C  309  1  0.21441400  0.67432000  0.12103500  1
  C  310  1  0.15337900  0.68935500  0.11546500  1
  C  312  1  0.27534700  0.62072100  0.13601600  1
  C  313  1  0.33020700  0.61785000  0.11424400  1
  C  314  1  0.38859100  0.60827100  0.13056100  1
  C  315  1  0.39228000  0.60297600  0.16742300  1
  C  316  1  0.33531400  0.60466400  0.18726900  1
  C  329  1  0.60059600  0.90769300  0.46434700  1
  C  330  1  0.60734000  0.94459500  0.46065100  1
  C  332  1  0.72029800  0.93952800  0.45321800  1
  C  333  1  0.71715400  0.90228900  0.45746000  1
  C  334  1  0.65655000  0.88682800  0.46337600  1
  C  336  1  0.77677700  0.95618500  0.44177600  1
  C  337  1  0.83257600  0.95875700  0.46286000  1
  C  338  1  0.89038200  0.96829100  0.44588800  1
  C  339  1  0.89272300  0.97384000  0.40902800  1
  C  340  1  0.83492400  0.97251100  0.38990500  1
  C  353  1  0.34623300  0.96237400  0.16720400  1
  C  354  1  0.35369200  0.95939700  0.13030000  1
  C  356  1  0.46636400  0.95141400  0.13613500  1
  C  357  1  0.46247500  0.95510500  0.17340900  1
  C  358  1  0.40157600  0.96093200  0.18850600  1
  C  360  1  0.52301000  0.94008100  0.11967600  1
  C  361  1  0.57871800  0.96123900  0.11730500  1
  C  362  1  0.63651000  0.94440200  0.10753100  1
  C  363  1  0.63889600  0.90760300  0.10155900  1
  C  364  1  0.58115300  0.88841300  0.10281000  1
  C  377  1  0.84393800  0.61420900  0.40858900  1
  C  378  1  0.85102200  0.61562700  0.44560200  1
  C  380  1  0.96361600  0.62435100  0.44041600  1
  C  381  1  0.96006800  0.62225300  0.40300000  1
  C  382  1  0.89939100  0.61681800  0.38750500  1
  C  384  1  0.01994600  0.63527400  0.45748900  1
  C  385  1  0.07631200  0.61455800  0.45858100  1
  C  386  1  0.13375700  0.63148000  0.46882200  1
  C  387  1  0.13521300  0.66798000  0.47653800  1
  C  388  1  0.07681200  0.68660100  0.47664900  1
  C  401  1  0.27464800  0.14737500  0.58468400  1
  C  402  1  0.21964100  0.15251500  0.56410000  1
  C  404  1  0.25050000  0.10640400  0.52366700  1
  C  405  1  0.30602800  0.09925900  0.54410600  1
  C  406  1  0.31744200  0.12037300  0.57443300  1
  C  408  1  0.23582000  0.08948300  0.49097200  1
  C  409  1  0.20536400  0.10698000  0.46219300  1
  C  410  1  0.18811500  0.08676300  0.43218100  1
  C  411  1  0.20233700  0.05047400  0.43002200  1
  C  412  1  0.23480200  0.03477300  0.45862600  1
  C  425  1  0.77429000  0.42786600  0.99115800  1
  C  426  1  0.71904600  0.42280400  0.01156900  1
  C  428  1  0.74951700  0.46899900  0.05201200  1
  C  429  1  0.80534200  0.47601900  0.03176800  1
  C  430  1  0.81703400  0.45484800  0.00151800  1
  C  432  1  0.73446500  0.48608200  0.08458300  1
  C  433  1  0.70342000  0.46880300  0.11330600  1
  C  434  1  0.68608000  0.48918400  0.14319900  1
  C  435  1  0.70080200  0.52541700  0.14531800  1
  C  436  1  0.73365800  0.54090900  0.11674400  1
  C  449  1  0.52626400  0.49150700  0.64537500  1
  C  450  1  0.47090400  0.51199300  0.64970600  1
  C  452  1  0.50300400  0.55183200  0.60343400  1
  C  453  1  0.55876200  0.53143600  0.59693300  1
  C  454  1  0.56975700  0.50143200  0.61857800  1
  C  456  1  0.48930000  0.58457500  0.58654900  1
  C  457  1  0.46266600  0.61404500  0.60473800  1
  C  458  1  0.44546800  0.64423900  0.58484500  1
  C  459  1  0.45535900  0.64567400  0.54809100  1
  C  460  1  0.48437000  0.61632000  0.53164300  1
  C  473  1  0.02615100  0.08502500  0.92877900  1
  C  474  1  0.97046400  0.06498500  0.92371200  1
  C  476  1  0.99997700  0.02450100  0.96999500  1
  C  477  1  0.05608400  0.04441400  0.97715000  1
  C  478  1  0.06852700  0.07451500  0.95588800  1
  C  480  1  0.98463400  0.99186500  0.98673900  1
  C  481  1  0.95608400  0.96290300  0.96859500  1
  C  482  1  0.93778200  0.93285400  0.98845400  1
  C  483  1  0.94913100  0.93089900  0.02505900  1
  C  484  1  0.97959000  0.95978100  0.04148300  1
  C  497  1  0.46869200  0.42601100  0.58770600  1
  C  498  1  0.52569600  0.42180100  0.56864600  1
  C  500  1  0.49763800  0.46874800  0.52840400  1
  C  501  1  0.44005000  0.47491800  0.54744500  1
  C  502  1  0.42637800  0.45301400  0.57690400  1
  C  504  1  0.51493000  0.48660600  0.49648100  1
  C  505  1  0.55275100  0.47116400  0.46919500  1
  C  506  1  0.56986400  0.49231900  0.43978400  1
  C  507  1  0.54855000  0.52745400  0.43660000  1
  C  508  1  0.50993200  0.54117400  0.46381300  1
  C  521  1  0.96832000  0.14888300  0.98793800  1
  C  522  1  0.02460900  0.15307500  0.00765100  1
  C  524  1  0.99495500  0.10616500  0.04749400  1
  C  525  1  0.93814100  0.09994100  0.02781400  1
  C  526  1  0.92557200  0.12187400  0.99822300  1
  C  528  1  0.01091400  0.08838100  0.07959400  1
  C  529  1  0.04487500  0.10457600  0.10794900  1
  C  530  1  0.06186500  0.08353400  0.13745200  1
  C  531  1  0.04428700  0.04768700  0.13955500  1
  C  532  1  0.00907900  0.03325600  0.11128300  1
  C  545  1  0.21631000  0.08697000  0.64675800  1
  C  546  1  0.27204400  0.06666100  0.65027200  1
  C  548  1  0.24019800  0.02790700  0.60287600  1
  C  549  1  0.18421000  0.04842600  0.59710200  1
  C  550  1  0.17298000  0.07773500  0.61964100  1
  C  552  1  0.25426400  0.99558300  0.58500100  1
  C  553  1  0.28686600  0.96671900  0.60115800  1
  C  554  1  0.30156900  0.93679400  0.58023000  1
  C  555  1  0.28392400  0.93494200  0.54439400  1
  C  556  1  0.24950400  0.96359900  0.53008700  1
  C  569  1  0.71737800  0.48843700  0.92757800  1
  C  570  1  0.77349900  0.50835700  0.92365600  1
  C  572  1  0.74343400  0.54753500  0.97104000  1
  C  573  1  0.68695000  0.52752800  0.97712100  1
  C  574  1  0.67466400  0.49817500  0.95481400  1
  C  576  1  0.75880600  0.57963800  0.98897500  1
  C  577  1  0.79169500  0.60837400  0.97278100  1
  C  578  1  0.80806600  0.63793600  0.99388600  1
  C  579  1  0.79115800  0.63968500  0.02985200  1
  C  580  1  0.75666800  0.61109400  0.04421900  1
  H  7  1  0.29071300  0.24344100  0.64629800  1
  H  8  1  0.47657200  0.27857300  0.62091700  1
  H  9  1  0.43849300  0.17045200  0.63258900  1
  H  16  1  0.26428600  0.29260800  0.61636000  1
  H  17  1  0.30052700  0.40095500  0.62777800  1
  H  18  1  0.44634300  0.32846000  0.64856300  1
  H  23  1  0.41397000  0.41785000  0.65090000  1
  H  24  1  0.56425700  0.23575300  0.62354400  1
  H  25  1  0.32289000  0.15360600  0.64987300  1
  H  26  1  0.17566700  0.33644600  0.61878700  1
  H  33  1  0.79130300  0.33169900  0.92990600  1
  H  34  1  0.97761200  0.29700300  0.95488600  1
  H  35  1  0.93860600  0.40504800  0.94327500  1
  H  42  1  0.76561800  0.28260300  0.96023100  1
  H  43  1  0.80183000  0.17432700  0.94812500  1
  H  44  1  0.94731800  0.24701800  0.92713100  1
  H  49  1  0.91492300  0.15730600  0.92471000  1
  H  50  1  0.06497200  0.34016100  0.95191100  1
  H  51  1  0.82291200  0.42162600  0.92611500  1
  H  52  1  0.67709700  0.23879400  0.95802700  1
  H  59  1  0.54095300  0.43169700  0.74338600  1
  H  60  1  0.72682400  0.45719000  0.77844400  1
  H  61  1  0.68889000  0.44463700  0.67037000  1
  H  68  1  0.51472500  0.46197100  0.79255600  1
  H  69  1  0.55060000  0.44943400  0.90085500  1
  H  70  1  0.69650200  0.42909100  0.82826700  1
  H  75  1  0.66382800  0.42509000  0.91736700  1
  H  76  1  0.81453000  0.45476000  0.73565900  1
  H  77  1  0.57298200  0.42620600  0.65392100  1
  H  78  1  0.42609700  0.46038100  0.83600200  1
  H  85  1  0.04264200  0.14472500  0.83185800  1
  H  86  1  0.22890000  0.11996500  0.79690100  1
  H  87  1  0.19099400  0.13339300  0.90488200  1
  H  94  1  0.01666800  0.11380100  0.78324700  1
  H  95  1  0.05127500  0.12527400  0.67473800  1
  H  96  1  0.19767500  0.14695100  0.74660100  1
  H  101  1  0.16417900  0.15054600  0.65781100  1
  H  102  1  0.31679800  0.12425100  0.83996600  1
  H  103  1  0.07420300  0.15021100  0.92147300  1
  H  104  1  0.92761900  0.11431800  0.74030600  1
  H  111  1  0.78652200  0.74771200  0.07998800  1
  H  112  1  0.96779000  0.77360400  0.12112000  1
  H  113  1  0.91739600  0.66727400  0.10424500  1
  H  120  1  0.76251400  0.79871000  0.11480200  1
  H  121  1  0.81679100  0.90271800  0.08955600  1
  H  122  1  0.94996000  0.82040600  0.08019300  1
  H  127  1  0.97170400  0.89553900  0.08671700  1
  H  128  1  0.03945000  0.72497200  0.13870900  1
  H  129  1  0.77089500  0.66840400  0.09536700  1
  H  130  1  0.69005800  0.84861100  0.12501600  1
  H  137  1  0.28548100  0.82963500  0.49566600  1
  H  138  1  0.46915100  0.80119200  0.45972700  1
  H  139  1  0.42046000  0.90811600  0.47258200  1
  H  146  1  0.25926800  0.77815300  0.46666000  1
  H  147  1  0.31234400  0.67287800  0.48636000  1
  H  148  1  0.44897600  0.75321600  0.49483300  1
  H  153  1  0.45929600  0.67367500  0.48117600  1
  H  154  1  0.54463700  0.84795400  0.44450200  1
  H  155  1  0.28251800  0.91299000  0.47543200  1
  H  156  1  0.18275300  0.73045200  0.45921400  1
  H  163  1  0.03702200  0.99650600  0.24952600  1
  H  164  1  0.21778600  0.95320800  0.27277500  1
  H  165  1  0.16546800  0.97380000  0.16739100  1
  H  172  1  0.01415000  0.95960600  0.30002000  1
  H  173  1  0.07158500  0.98410900  0.40372000  1
  H  174  1  0.20190900  0.99466200  0.32010600  1
  H  179  1  0.22505000  0.98785900  0.39600400  1
  H  180  1  0.28734500  0.93604800  0.22281400  1
  H  181  1  0.01418800  0.98602500  0.17322700  1
  H  182  1  0.94404700  0.94802700  0.35120300  1
  H  189  1  0.53730700  0.57859000  0.32488000  1
  H  190  1  0.71644600  0.62451500  0.30289100  1
  H  191  1  0.66377500  0.60191500  0.40782900  1
  H  198  1  0.51459400  0.61794300  0.27500100  1
  H  199  1  0.57225100  0.59300800  0.17140900  1
  H  200  1  0.70166700  0.58152400  0.25544100  1
  H  205  1  0.72608600  0.58733800  0.17988800  1
  H  206  1  0.78465200  0.64201400  0.35366400  1
  H  207  1  0.51030500  0.58507800  0.39880400  1
  H  208  1  0.44632500  0.63113900  0.22298400  1
  H  215  1  0.66690400  0.21389900  0.60650300  1
  H  222  1  0.93122900  0.09886700  0.62322100  1
  H  223  1  0.82285400  0.10519700  0.71702600  1
  H  224  1  0.56702800  0.11813400  0.62033500  1
  H  239  1  0.16711800  0.36206200  0.97007200  1
  H  246  1  0.43124800  0.47689500  0.95286100  1
  H  247  1  0.32194100  0.47071400  0.85937700  1
  H  248  1  0.06683400  0.45764500  0.95591800  1
  H  263  1  0.91737400  0.47084600  0.71335000  1
  H  270  1  0.18143800  0.45251700  0.59890400  1
  H  271  1  0.07205200  0.35910700  0.60584500  1
  H  272  1  0.81701000  0.45626600  0.61785800  1
  H  287  1  0.41905300  0.10603600  0.86187000  1
  H  294  1  0.68279800  0.12252900  0.97670300  1
  H  295  1  0.57359400  0.21608000  0.97086500  1
  H  296  1  0.31836000  0.11931100  0.95744400  1
  H  311  1  0.14937500  0.71620000  0.11275700  1
  H  318  1  0.42937000  0.60722300  0.11562100  1
  H  319  1  0.33554400  0.60097300  0.21405500  1
  H  320  1  0.06684900  0.61467200  0.11773900  1
  H  335  1  0.65333000  0.85996500  0.46613300  1
  H  342  1  0.93175200  0.96907700  0.46034100  1
  H  343  1  0.83408100  0.97641200  0.36315500  1
  H  344  1  0.56823400  0.96080500  0.46078000  1
  H  359  1  0.39760000  0.96331900  0.21538500  1
  H  366  1  0.67783200  0.95889700  0.10682700  1
  H  367  1  0.58031200  0.86171400  0.09859700  1
  H  368  1  0.31494800  0.96003000  0.11383100  1
  H  383  1  0.89566200  0.61552900  0.36053800  1
  H  390  1  0.17554100  0.61737600  0.46844300  1
  H  391  1  0.07517300  0.71306400  0.48207300  1
  H  392  1  0.81216000  0.61406300  0.46192300  1
  H  407  1  0.36014600  0.11786000  0.58742200  1
  H  414  1  0.16392700  0.09873300  0.41187500  1
  H  415  1  0.24465400  0.00835300  0.45876400  1
  H  416  1  0.18939900  0.17321800  0.56886300  1
  H  431  1  0.85991000  0.45728500  0.98869200  1
  H  438  1  0.66156200  0.47737100  0.16347500  1
  H  439  1  0.74379000  0.56729100  0.11656700  1
  H  440  1  0.68881600  0.40211400  0.00673800  1
  H  455  1  0.61268500  0.48856400  0.61669400  1
  H  462  1  0.42390800  0.66509600  0.59741100  1
  H  463  1  0.49115400  0.61569600  0.50493800  1
  H  464  1  0.44023100  0.50752900  0.67028200  1
  H  479  1  0.11168800  0.08705000  0.95832300  1
  H  486  1  0.91502400  0.91235800  0.97596200  1
  H  487  1  0.98696100  0.96008000  0.06815100  1
  H  488  1  0.94053000  0.06989300  0.90290300  1
  H  503  1  0.38243800  0.45491900  0.58868500  1
  H  510  1  0.59851200  0.48181700  0.42047000  1
  H  511  1  0.49455100  0.56677000  0.46324400  1
  H  512  1  0.55590400  0.40115900  0.57372400  1
  H  527  1  0.88205800  0.12000500  0.98596700  1
  H  534  1  0.08793600  0.09461300  0.15754700  1
  H  535  1  0.99654200  0.00719600  0.11107600  1
  H  536  1  0.05498500  0.17373000  0.00294300  1
  H  551  1  0.12985700  0.09046200  0.61819900  1
  H  558  1  0.32678100  0.91635800  0.59132300  1
  H  559  1  0.23564700  0.96373700  0.50424200  1
  H  560  1  0.30272500  0.07053600  0.67096200  1
  H  575  1  0.63124400  0.48579400  0.95651800  1
  H  582  1  0.83336200  0.65830900  0.98276200  1
  H  583  1  0.74403400  0.61072100  0.07024900  1
  H  584  1  0.80377000  0.50411000  0.90285500  1
  N  211  1  0.66470600  0.11531900  0.62205500  1
  N  221  1  0.77464600  0.11186500  0.67045700  1
  N  225  1  0.83393600  0.11130600  0.57863200  1
  N  226  1  0.78364400  0.18705300  0.61499500  1
  N  231  1  0.94169100  0.10381200  0.68974200  1
  N  232  1  0.55121400  0.18469700  0.61518300  1
  N  235  1  0.16451000  0.46061900  0.95443600  1
  N  245  1  0.27415600  0.46417300  0.90609200  1
  N  249  1  0.33426700  0.46476000  0.99774400  1
  N  250  1  0.28377000  0.38909000  0.96185300  1
  N  255  1  0.44109600  0.47176200  0.88631700  1
  N  256  1  0.05133900  0.39105000  0.96103800  1
  N  259  1  0.91467400  0.45448000  0.61490700  1
  N  269  1  0.02425200  0.40589000  0.61184900  1
  N  273  1  0.08440000  0.49752100  0.61039800  1
  N  274  1  0.03394000  0.46205000  0.68642300  1
  N  279  1  0.19131500  0.38606000  0.60480200  1
  N  280  1  0.80158600  0.46196100  0.68441200  1
  N  283  1  0.41601900  0.12093600  0.96054600  1
  N  293  1  0.52570600  0.16940400  0.96433700  1
  N  297  1  0.58565000  0.07772300  0.96472600  1
  N  298  1  0.53555800  0.11426300  0.88908300  1
  N  303  1  0.69279400  0.18903500  0.97144200  1
  N  304  1  0.30315900  0.11463300  0.89078900  1
  N  307  1  0.16429300  0.61726200  0.12395500  1
  N  317  1  0.28014400  0.61418200  0.17124600  1
  N  321  1  0.32568600  0.62520100  0.07760700  1
  N  322  1  0.26991800  0.69550700  0.12437100  1
  N  327  1  0.44917600  0.59847500  0.18206100  1
  N  328  1  0.03969000  0.68099900  0.11032400  1
  N  331  1  0.66566700  0.95890800  0.45437400  1
  N  341  1  0.78030600  0.96300900  0.40654300  1
  N  345  1  0.82957800  0.95111500  0.49949000  1
  N  346  1  0.77297800  0.88143800  0.45368400  1
  N  351  1  0.94927000  0.97818400  0.39387400  1
  N  352  1  0.54227200  0.89445100  0.46831400  1
  N  355  1  0.41227300  0.95312900  0.11633400  1
  N  365  1  0.52653200  0.90492500  0.11249900  1
  N  369  1  0.57559600  0.99778400  0.12531900  1
  N  370  1  0.51783100  0.95110200  0.19459800  1
  N  375  1  0.69550300  0.89261500  0.09693400  1
  N  376  1  0.28809400  0.96671100  0.18037200  1
  N  379  1  0.90939000  0.62155400  0.45998100  1
  N  389  1  0.02253700  0.67005500  0.46641400  1
  N  393  1  0.07416500  0.57842000  0.44878800  1
  N  394  1  0.01547400  0.62739700  0.38209900  1
  N  399  1  0.19179300  0.68316900  0.48079300  1
  N  400  1  0.78609000  0.60994100  0.39509100  1
  N  403  1  0.21025600  0.13233100  0.53503200  1
  N  413  1  0.24912700  0.05437900  0.48756900  1
  N  417  1  0.19324600  0.14384600  0.46317800  1
  N  418  1  0.35194300  0.07438900  0.53226700  1
  N  423  1  0.17576100  0.03231300  0.40404500  1
  N  424  1  0.29595000  0.17383900  0.60402400  1
  N  427  1  0.70934600  0.44307300  0.04055500  1
  N  437  1  0.74808800  0.52115600  0.08791600  1
  N  441  1  0.69089000  0.43198000  0.11239800  1
  N  442  1  0.85131000  0.50078700  0.04376200  1
  N  447  1  0.67443500  0.54383300  0.17119100  1
  N  448  1  0.79583300  0.40137000  0.97192600  1
  N  451  1  0.46201000  0.54082500  0.62914100  1
  N  461  1  0.49916200  0.58728700  0.55104700  1
  N  465  1  0.45388400  0.61341800  0.64190000  1
  N  466  1  0.60524800  0.54327500  0.57238700  1
  N  471  1  0.42825300  0.67221400  0.53102600  1
  N  472  1  0.54719800  0.47295000  0.67247100  1
  N  475  1  0.96012600  0.03607700  0.94397800  1
  N  485  1  0.99510300  0.98874500  0.02216100  1
  N  489  1  0.94692400  0.96380000  0.93146500  1
  N  490  1  0.10155400  0.03208300  0.00203200  1
  N  495  1  0.92193300  0.90473900  0.04265400  1
  N  496  1  0.04838700  0.10376200  0.90213300  1
  N  499  1  0.53729000  0.44281900  0.54041700  1
  N  509  1  0.49567800  0.52076200  0.49217600  1
  N  513  1  0.57205500  0.43526900  0.47079100  1
  N  514  1  0.39441200  0.49974700  0.53517300  1
  N  519  1  0.57247100  0.54685300  0.41071100  1
  N  520  1  0.44574600  0.39886400  0.60548500  1
  N  523  1  0.03513200  0.13208200  0.03602400  1
  N  533  1  0.99478800  0.05363000  0.08288500  1
  N  537  1  0.06049900  0.14104100  0.10717500  1
  N  538  1  0.89216400  0.07513000  0.03972100  1
  N  543  1  0.06868500  0.02871000  0.16564600  1
  N  544  1  0.94612600  0.17611900  0.96999000  1
  N  547  1  0.28111500  0.03851100  0.62880200  1
  N  557  1  0.23699200  0.99230100  0.55041700  1
  N  561  1  0.30370700  0.96738000  0.63745700  1
  N  562  1  0.13761500  0.03757700  0.57215700  1
  N  567  1  0.30719300  0.90808700  0.52602800  1
  N  568  1  0.19475500  0.10407400  0.67466900  1
  N  571  1  0.78368600  0.53652700  0.94496300  1
  N  581  1  0.74286800  0.58267000  0.02377100  1
  N  585  1  0.80682300  0.60792200  0.93624700  1
  N  586  1  0.64090600  0.53896700  0.00211400  1
  N  591  1  0.81503200  0.66611500  0.04862200  1
  N  592  1  0.69498200  0.47123200  0.89992600  1
  O  227  1  0.85038700  0.08267200  0.56442800  1
  O  228  1  0.78509200  0.20854700  0.64035500  1
  O  229  1  0.79432300  0.20363600  0.58680300  1
  O  230  1  0.87218600  0.13498500  0.56883100  1
  O  251  1  0.35094500  0.49340900  0.01183500  1
  O  252  1  0.28554300  0.36759300  0.93650100  1
  O  253  1  0.29430200  0.37253000  0.99007600  1
  O  254  1  0.37252900  0.44106700  0.00750200  1
  O  275  1  0.10126900  0.51132100  0.58164100  1
  O  276  1  0.03539900  0.43684100  0.70809000  1
  O  277  1  0.04475500  0.49035000  0.70279200  1
  O  278  1  0.12250500  0.50751800  0.63407000  1
  O  299  1  0.60249800  0.06358400  0.99332300  1
  O  300  1  0.53725000  0.13977800  0.86778100  1
  O  301  1  0.54631400  0.08618200  0.87232700  1
  O  302  1  0.62373500  0.06797700  0.94094100  1
  O  323  1  0.34036500  0.59850200  0.05954600  1
  O  324  1  0.26585300  0.71603600  0.15041600  1
  O  325  1  0.27957500  0.71358600  0.09699900  1
  O  326  1  0.36192500  0.65022000  0.06885500  1
  O  347  1  0.84527200  0.97762600  0.51756800  1
  O  348  1  0.76884000  0.86111900  0.42748200  1
  O  349  1  0.78349000  0.86319300  0.48084800  1
  O  350  1  0.86602200  0.92595900  0.50756900  1
  O  371  1  0.59109600  0.01615300  0.09897600  1
  O  372  1  0.51307600  0.92482100  0.21478100  1
  O  373  1  0.52803200  0.97815800  0.21305800  1
  O  374  1  0.61205600  0.00565200  0.15053300  1
  O  395  1  0.09045800  0.55893200  0.47415900  1
  O  396  1  0.01049300  0.65453800  0.36310800  1
  O  397  1  0.02604800  0.60123800  0.36243800  1
  O  398  1  0.11058100  0.57208800  0.42312100  1
  O  419  1  0.13459300  0.15050600  0.46063000  1
  O  420  1  0.36245500  0.05096400  0.55510000  1
  O  421  1  0.40407300  0.08905200  0.52469700  1
  O  422  1  0.22243500  0.15986000  0.43892600  1
  O  443  1  0.63213800  0.42553200  0.11477200  1
  O  444  1  0.86258200  0.52405600  0.02088300  1
  O  445  1  0.90311100  0.48596100  0.05169600  1
  O  446  1  0.71962800  0.41594500  0.13679800  1
  O  467  1  0.39606100  0.61708800  0.65009500  1
  O  468  1  0.61737800  0.52012200  0.54953000  1
  O  469  1  0.65658800  0.55144600  0.58756500  1
  O  470  1  0.48583000  0.63722500  0.65693000  1
  O  491  1  0.88889800  0.96094300  0.92339700  1
  O  492  1  0.11341900  0.05496200  0.02520700  1
  O  493  1  0.15318900  0.02368500  0.98729000  1
  O  494  1  0.97773400  0.93966500  0.91623100  1
  O  515  1  0.63186000  0.43225800  0.47084300  1
  O  516  1  0.38176000  0.52260400  0.55825200  1
  O  517  1  0.34321800  0.48499500  0.52597500  1
  O  518  1  0.54972200  0.41760900  0.44547300  1
  O  539  1  0.11984500  0.14591300  0.10862100  1
  O  540  1  0.88000800  0.05233800  0.01649800  1
  O  541  1  0.84076800  0.08995000  0.04844900  1
  O  542  1  0.03445700  0.15761000  0.13213900  1
  O  563  1  0.36312300  0.96501200  0.64170200  1
  O  564  1  0.12643400  0.06135300  0.54978400  1
  O  565  1  0.08589100  0.02927800  0.58687500  1
  O  566  1  0.27695200  0.94292000  0.65442400  1
  O  587  1  0.86604600  0.60994900  0.93113200  1
  O  588  1  0.62910800  0.51542700  0.02463700  1
  O  589  1  0.58935200  0.54767300  0.98745100  1
  O  590  1  0.77978200  0.63271000  0.91990700  1
