# generated using pymatgen
data_H28C41(NO2)4
_symmetry_space_group_name_H-M   'P 1'
_cell_length_a   30.66730000
_cell_length_b   47.74525000
_cell_length_c   47.74520000
_cell_angle_alpha   119.99989607
_cell_angle_beta   90.00000000
_cell_angle_gamma   90.00000000
_symmetry_Int_Tables_number   1
_chemical_formula_structural   H28C41(NO2)4
_chemical_formula_sum   'H168 C246 N24 O48'
_cell_volume   60543.35961622
_cell_formula_units_Z   6
loop_
 _symmetry_equiv_pos_site_id
 _symmetry_equiv_pos_as_xyz
  1  'x, y, z'
loop_
 _atom_site_type_symbol
 _atom_site_label
 _atom_site_symmetry_multiplicity
 _atom_site_fract_x
 _atom_site_fract_y
 _atom_site_fract_z
 _atom_site_occupancy
  H  26  1  0.07839400  0.52327500  0.52526600  1
  H  27  1  0.01099300  0.54922500  0.54662600  1
  H  28  1  0.13516100  0.57666000  0.61782400  1
  H  29  1  0.06734900  0.60249100  0.63915500  1
  H  30  1  0.01916500  0.65627100  0.65475300  1
  H  31  1  0.03401400  0.70226000  0.64937400  1
  H  32  1  0.99491100  0.64995800  0.55177200  1
  H  33  1  0.98022700  0.60428800  0.55723500  1
  H  34  1  0.90796600  0.61086500  0.59067400  1
  H  35  1  0.84727900  0.57769700  0.56237900  1
  H  36  1  0.90888600  0.49808900  0.56104800  1
  H  37  1  0.96943300  0.53093400  0.58857000  1
  H  38  1  0.00867800  0.56213600  0.64303500  1
  H  39  1  0.93171400  0.64045300  0.65519700  1
  H  40  1  0.90660900  0.64810900  0.70540700  1
  H  41  1  0.98334300  0.56952400  0.69323400  1
  H  44  1  0.00539400  0.70900500  0.57871800  1
  H  45  1  0.17938700  0.53840500  0.57284100  1
  H  47  1  0.83281900  0.49445500  0.54476700  1
  H  49  1  0.89980900  0.62936600  0.74352400  1
  H  60  1  0.74546700  0.96668800  0.44906700  1
  H  61  1  0.67787400  0.96216500  0.42341400  1
  H  62  1  0.68393600  0.96305900  0.31550900  1
  H  63  1  0.69875500  0.91184300  0.26929400  1
  H  64  1  0.66329000  0.86611100  0.32192600  1
  H  65  1  0.64857100  0.91710400  0.36782300  1
  H  66  1  0.57524500  0.94336700  0.36144000  1
  H  67  1  0.51432000  0.94843500  0.39442400  1
  H  68  1  0.67189800  0.83430400  0.26252700  1
  H  85  1  0.30211700  0.95255700  0.59121300  1
  H  86  1  0.23410000  0.95709300  0.61680900  1
  H  87  1  0.07505500  0.92959900  0.51184900  1
  H  88  1  0.13586500  0.93508000  0.54459100  1
  H  89  1  0.17708200  0.91219600  0.57660400  1
  H  90  1  0.09620700  0.97779400  0.65234200  1
  H  91  1  0.07082900  0.93538300  0.66006600  1
  H  92  1  0.15191200  0.86957400  0.58435300  1
  H  95  1  0.34641500  0.95846700  0.55247100  1
  H  97  1  0.99887300  0.94237600  0.50853100  1
  H  98  1  0.06656000  0.87892500  0.64305500  1
  H  124  1  0.91213100  0.51046900  0.98108700  1
  H  125  1  0.84451100  0.53160000  0.97662400  1
  H  126  1  0.96875100  0.60294200  0.01893500  1
  H  127  1  0.90069500  0.62404200  0.01452700  1
  H  128  1  0.85050100  0.64039600  0.97749400  1
  H  129  1  0.86524700  0.63538700  0.92627000  1
  H  130  1  0.82988400  0.53699600  0.88055600  1
  H  131  1  0.81523000  0.54209400  0.93156300  1
  H  132  1  0.74188700  0.57477400  0.95776700  1
  H  133  1  0.68095600  0.54684400  0.96280000  1
  H  134  1  0.74167300  0.54639400  0.04182600  1
  H  135  1  0.80246400  0.57373700  0.03644200  1
  H  136  1  0.84362200  0.62875800  0.05942100  1
  H  137  1  0.76283900  0.63892700  0.99380000  1
  H  138  1  0.73753200  0.68909600  0.03619100  1
  H  139  1  0.81850800  0.67917800  0.10203400  1
  H  142  1  0.83831900  0.56469400  0.84877400  1
  H  143  1  0.01309600  0.55824400  0.01285900  1
  H  145  1  0.66546500  0.53035300  0.02903500  1
  H  147  1  0.73319200  0.72859100  0.09265400  1
  H  153  1  0.23450800  0.55211200  0.52562300  1
  H  154  1  0.31594900  0.51870400  0.49485900  1
  H  160  1  0.90156400  0.93765900  0.41943900  1
  H  161  1  0.98313900  0.94036600  0.45288200  1
  H  167  1  0.56756600  0.50758400  0.94192600  1
  H  168  1  0.64978700  0.47671000  0.03100500  1
  H  174  1  0.65360900  0.51939400  0.48522400  1
  H  176  1  0.73423800  0.55876800  0.52218000  1
  H  183  1  0.32006800  0.93011200  0.45207400  1
  H  185  1  0.40086100  0.92766200  0.41283000  1
  H  192  1  0.98673900  0.48621300  0.04127700  1
  H  195  1  0.06825900  0.51109100  0.95200600  1
  H  196  1  0.14983100  0.48035400  0.95471600  1
  H  205  1  0.03714100  0.73108800  0.54260300  1
  H  209  1  0.03126500  0.79261600  0.67540400  1
  H  210  1  0.06070100  0.79146700  0.54700500  1
  H  211  1  0.06000000  0.85238900  0.67978600  1
  H  221  1  0.70366500  0.77618800  0.24056700  1
  H  225  1  0.69796800  0.84729900  0.17883200  1
  H  226  1  0.72718100  0.72012900  0.18018100  1
  H  227  1  0.72660200  0.79184200  0.11915000  1
  H  237  1  0.87028400  0.52857200  0.79064900  1
  H  241  1  0.86455400  0.66145300  0.86208500  1
  H  242  1  0.89374700  0.53310200  0.73470100  1
  H  243  1  0.89308600  0.66584700  0.80674300  1
  H  268  1  0.41214300  0.44661200  0.00473500  1
  H  269  1  0.34455000  0.42548700  0.00926500  1
  H  270  1  0.46872800  0.35411100  0.96674400  1
  H  271  1  0.40070400  0.33302200  0.97121600  1
  H  272  1  0.35064400  0.31669100  0.00832600  1
  H  273  1  0.36547100  0.32168500  0.05953600  1
  H  274  1  0.32990600  0.42002900  0.10528600  1
  H  275  1  0.31518000  0.41494200  0.05429700  1
  H  276  1  0.24187700  0.38226600  0.02798800  1
  H  277  1  0.18094900  0.41017900  0.02291800  1
  H  278  1  0.24177000  0.41067700  0.94395300  1
  H  279  1  0.30254800  0.38335400  0.94937400  1
  H  280  1  0.34355200  0.32839300  0.92638000  1
  H  281  1  0.26294200  0.31807100  0.99197300  1
  H  283  1  0.33859200  0.39245600  0.13709100  1
  H  284  1  0.51307100  0.39881500  0.97284000  1
  H  286  1  0.16555200  0.42670200  0.95668900  1
  H  311  1  0.57887400  0.43501200  0.46103100  1
  H  312  1  0.51120300  0.40945400  0.43991900  1
  H  313  1  0.63548500  0.38015200  0.36860900  1
  H  314  1  0.56740000  0.35469600  0.34753600  1
  H  315  1  0.51704300  0.30130800  0.33102300  1
  H  316  1  0.49681300  0.30771300  0.43441200  1
  H  317  1  0.48210400  0.35364900  0.42937800  1
  H  318  1  0.40858900  0.34731100  0.39694800  1
  H  319  1  0.34765100  0.38028100  0.42489900  1
  H  320  1  0.40815500  0.45964500  0.42503000  1
  H  321  1  0.46893600  0.42692800  0.39768200  1
  H  322  1  0.51040400  0.39487500  0.34269300  1
  H  323  1  0.42939600  0.31925300  0.33264000  1
  H  324  1  0.40409200  0.31146600  0.28246700  1
  H  325  1  0.48528900  0.38706500  0.29226700  1
  H  328  1  0.67996300  0.41867900  0.41328400  1
  H  330  1  0.33223400  0.46314600  0.44146300  1
  H  331  1  0.39992200  0.32829100  0.24286000  1
  H  336  1  0.15305600  0.43783500  0.50067800  1
  H  338  1  0.23384300  0.39873200  0.46389000  1
  H  343  1  0.48675300  0.47080700  0.94437400  1
  H  346  1  0.56821100  0.44599800  0.03372100  1
  H  353  1  0.73534900  0.40538100  0.46040400  1
  H  354  1  0.81675900  0.43885200  0.49124700  1
  H  360  1  0.06752500  0.44942000  0.04372600  1
  H  369  1  0.37039500  0.42861100  0.19519400  1
  H  373  1  0.36456500  0.29578000  0.12413000  1
  H  374  1  0.39390500  0.42431200  0.25126200  1
  H  392  1  0.80208700  0.00459800  0.39450000  1
  H  393  1  0.73406200  0.00013300  0.36893900  1
  H  394  1  0.57508500  0.02746300  0.47386500  1
  H  395  1  0.63586700  0.02204000  0.44112300  1
  H  396  1  0.67692800  0.04501200  0.40914800  1
  H  397  1  0.59624800  0.97943300  0.33328100  1
  H  398  1  0.57085900  0.02187200  0.32560900  1
  H  399  1  0.65173400  0.08767500  0.40145900  1
  H  402  1  0.84642000  0.99852900  0.43312900  1
  H  404  1  0.49890000  0.01469000  0.47717500  1
  H  405  1  0.56649000  0.07836300  0.34263800  1
  H  409  1  0.23755000  0.26795900  0.94953500  1
  H  410  1  0.31835600  0.27803800  0.88371600  1
  H  412  1  0.23315100  0.22851800  0.89303900  1
  H  415  1  0.53186000  0.25505900  0.33596900  1
  H  416  1  0.50525800  0.24830100  0.40678800  1
  H  428  1  0.24548400  0.99029900  0.53649700  1
  H  429  1  0.17790000  0.99489200  0.56218100  1
  H  430  1  0.18388700  0.99407200  0.67018700  1
  H  431  1  0.19864900  0.04527500  0.71643000  1
  H  432  1  0.16336400  0.09104900  0.66379900  1
  H  433  1  0.14868400  0.04006400  0.61786600  1
  H  434  1  0.07529900  0.01385300  0.62421300  1
  H  435  1  0.01434500  0.00872300  0.59122900  1
  H  436  1  0.17181600  0.12280900  0.72323100  1
  H  443  1  0.82009900  0.02699900  0.53359000  1
  H  445  1  0.90089700  0.02944700  0.57282000  1
  H  452  1  0.40159400  0.01936600  0.56622700  1
  H  453  1  0.48316700  0.01665700  0.53278900  1
  H  454  1  0.39318200  0.29156100  0.17960600  1
  H  462  1  0.53700600  0.22630800  0.44291900  1
  H  466  1  0.53119200  0.16450300  0.31006600  1
  H  467  1  0.56053600  0.16592500  0.43861200  1
  H  468  1  0.55983100  0.10483400  0.30587000  1
  H  478  1  0.20364800  0.18088400  0.74511900  1
  H  482  1  0.19790500  0.10980400  0.80688300  1
  H  483  1  0.22715800  0.23695400  0.80549100  1
  H  484  1  0.22654200  0.16527400  0.86657000  1
  C  1  1  0.94255500  0.60990100  0.70510700  1
  C  2  1  0.92903400  0.63023300  0.69298800  1
  C  3  1  0.94444200  0.62585400  0.66322300  1
  C  4  1  0.97558400  0.60178600  0.64406600  1
  C  5  1  0.98854200  0.58128200  0.65631900  1
  C  6  1  0.97294200  0.58537400  0.68603100  1
  C  7  1  0.98696400  0.59494700  0.60976700  1
  C  8  1  0.94730000  0.57431500  0.59096500  1
  C  9  1  0.94448000  0.54135000  0.58282800  1
  C  10  1  0.90838200  0.52173900  0.56648500  1
  C  11  1  0.87212300  0.53413600  0.55786200  1
  C  12  1  0.87338100  0.56727000  0.56701000  1
  C  13  1  0.90967100  0.58686300  0.58360600  1
  C  14  1  0.99453200  0.62558000  0.60734600  1
  C  15  1  0.03028400  0.57708200  0.59599200  1
  C  16  1  0.03629000  0.55470100  0.56245800  1
  C  17  1  0.07656800  0.53941500  0.54954900  1
  C  18  1  0.11388100  0.54643200  0.56938000  1
  C  19  1  0.10898300  0.56999700  0.60248600  1
  C  20  1  0.06858200  0.58520600  0.61522700  1
  C  21  1  0.01249300  0.65463000  0.63302200  1
  C  22  1  0.02210600  0.68186100  0.62975800  1
  C  23  1  0.01531400  0.68131500  0.60016400  1
  C  24  1  0.99954100  0.65202600  0.57397100  1
  C  25  1  0.99040800  0.62491400  0.57735300  1
  C  42  1  0.15454000  0.53183400  0.55741600  1
  C  43  1  0.92528200  0.61460500  0.73448300  1
  C  46  1  0.83647800  0.51390100  0.54240100  1
  C  48  1  0.02240300  0.70804500  0.59595700  1
  C  50  1  0.54031200  0.96360500  0.40486600  1
  C  51  1  0.57676800  0.96048100  0.38538600  1
  C  52  1  0.66116100  0.94610100  0.34647000  1
  C  53  1  0.70316200  0.97227700  0.41764200  1
  C  54  1  0.74357300  0.97458900  0.43274000  1
  C  55  1  0.67803900  0.94290300  0.31720900  1
  C  56  1  0.68765700  0.91250700  0.28983300  1
  C  57  1  0.68193400  0.88338400  0.29040900  1
  C  58  1  0.66718700  0.88630900  0.31985700  1
  C  59  1  0.65805600  0.91670700  0.34711100  1
  C  69  1  0.68894400  0.85251500  0.26354300  1
  C  70  1  0.10897000  0.89777900  0.62331300  1
  C  71  1  0.09412100  0.93001300  0.64272700  1
  C  72  1  0.10960300  0.95537800  0.63835000  1
  C  73  1  0.14199600  0.95061700  0.61507300  1
  C  74  1  0.15602000  0.91802300  0.59529400  1
  C  75  1  0.14052500  0.89243800  0.59949000  1
  C  76  1  0.15368900  0.97814100  0.60840900  1
  C  77  1  0.11418100  0.97652100  0.58776100  1
  C  78  1  0.11107700  0.95142200  0.55492100  1
  C  79  1  0.07483600  0.94804600  0.53539600  1
  C  80  1  0.03872000  0.96920300  0.54780800  1
  C  81  1  0.19710000  0.97403900  0.59066300  1
  C  82  1  0.28091900  0.97004100  0.56035400  1
  C  83  1  0.27593900  0.96092200  0.58422300  1
  C  84  1  0.23542100  0.96341000  0.59928400  1
  C  93  1  0.32164900  0.96736600  0.54587500  1
  C  94  1  0.09206300  0.87319300  0.62829500  1
  C  96  1  0.00281800  0.96428400  0.52778600  1
  C  99  1  0.77559100  0.68994400  0.07382700  1
  C  100  1  0.76075900  0.67710000  0.04158200  1
  C  101  1  0.77621900  0.64734300  0.01621900  1
  C  102  1  0.80853500  0.62879200  0.02099400  1
  C  103  1  0.82260500  0.64163900  0.05358600  1
  C  104  1  0.80712300  0.67144200  0.07916600  1
  C  105  1  0.82028000  0.59460400  0.99346900  1
  C  106  1  0.78077500  0.57556100  0.99505300  1
  C  107  1  0.77768100  0.56774600  0.02009800  1
  C  108  1  0.74145300  0.55155000  0.02341600  1
  C  109  1  0.70534600  0.54283600  0.00225500  1
  C  110  1  0.70693500  0.55157600  0.97798300  1
  C  111  1  0.74339300  0.56793800  0.97487800  1
  C  112  1  0.82779300  0.59245900  0.96053700  1
  C  113  1  0.86369600  0.58094800  0.99755700  1
  C  114  1  0.86980000  0.54748600  0.98672200  1
  C  115  1  0.91022900  0.53469900  0.98899500  1
  C  116  1  0.94756800  0.55458500  0.00138400  1
  C  117  1  0.94256900  0.58759200  0.01057900  1
  C  118  1  0.90202400  0.60019000  0.00817500  1
  C  119  1  0.84462000  0.61853300  0.95734300  1
  C  120  1  0.85419400  0.61550700  0.92694500  1
  C  121  1  0.84847400  0.58579700  0.89783400  1
  C  122  1  0.83377500  0.55926100  0.90075300  1
  C  123  1  0.82468900  0.56241100  0.93115700  1
  C  140  1  0.98831400  0.54276000  0.00400200  1
  C  141  1  0.75872000  0.71958100  0.09836300  1
  C  144  1  0.66944600  0.52770600  0.00713000  1
  C  146  1  0.85544900  0.58181500  0.86698600  1
  C  148  1  0.19808500  0.49379300  0.51271900  1
  C  149  1  0.23920300  0.50903600  0.51694800  1
  C  150  1  0.27638900  0.49099200  0.49978600  1
  C  156  1  0.90635000  0.97208000  0.46249800  1
  C  157  1  0.94354800  0.97301600  0.48054300  1
  C  162  1  0.60706400  0.49391700  0.98689200  1
  C  163  1  0.56608500  0.49815200  0.97590500  1
  C  164  1  0.52884100  0.48122300  0.97705400  1
  C  170  1  0.77396300  0.50022600  0.50857800  1
  C  171  1  0.73291700  0.51534300  0.51271000  1
  C  172  1  0.69574400  0.49720300  0.49569200  1
  C  178  1  0.44041400  0.97258800  0.47146100  1
  C  179  1  0.39942300  0.96162100  0.45625000  1
  C  180  1  0.36218400  0.96277000  0.47433300  1
  C  181  1  0.36526600  0.97398100  0.50788600  1
  C  188  1  0.02884600  0.47581000  0.00861400  1
  C  189  1  0.03192400  0.49814900  0.99740000  1
  C  190  1  0.07303000  0.50243000  0.98641300  1
  C  191  1  0.11022600  0.48531800  0.98734700  1
  C  198  1  0.08595900  0.81629800  0.61146500  1
  C  199  1  0.07975000  0.78684300  0.58211800  1
  C  200  1  0.06657700  0.75824300  0.58192300  1
  C  201  1  0.05940000  0.75817600  0.61126500  1
  C  202  1  0.06635800  0.78748200  0.64061200  1
  C  203  1  0.07919900  0.81614200  0.64080900  1
  C  214  1  0.75250400  0.75967500  0.15529400  1
  C  215  1  0.74626800  0.75984900  0.18478300  1
  C  216  1  0.73311600  0.78828700  0.21336800  1
  C  217  1  0.72596400  0.81769300  0.21341600  1
  C  218  1  0.73296300  0.81767200  0.18408100  1
  C  219  1  0.74578100  0.78917200  0.15543100  1
  C  230  1  0.91900600  0.59755500  0.77441300  1
  C  231  1  0.91282100  0.56817000  0.77445900  1
  C  232  1  0.89970300  0.56790400  0.80284100  1
  C  233  1  0.89255400  0.59720800  0.83229500  1
  C  234  1  0.89951600  0.62658800  0.83240500  1
  C  235  1  0.91229300  0.62685500  0.80396300  1
  C  246  1  0.27629500  0.30968800  0.96955100  1
  C  247  1  0.30861300  0.32826500  0.96481400  1
  C  248  1  0.32254600  0.31549100  0.93219700  1
  C  249  1  0.32031200  0.36245700  0.99235100  1
  C  250  1  0.28081400  0.38149400  0.99073400  1
  C  251  1  0.27774900  0.38933100  0.96570200  1
  C  252  1  0.24151800  0.40551200  0.96235600  1
  C  253  1  0.20538200  0.41421100  0.98349100  1
  C  254  1  0.20695700  0.40547300  0.00776500  1
  C  255  1  0.24341300  0.38911700  0.01089200  1
  C  256  1  0.32782200  0.36459900  0.02528900  1
  C  257  1  0.36370700  0.37613000  0.98825800  1
  C  258  1  0.36983100  0.40959700  0.99913400  1
  C  259  1  0.41023900  0.42237600  0.99680900  1
  C  260  1  0.44755200  0.40247900  0.98434700  1
  C  261  1  0.44255700  0.36947200  0.97514200  1
  C  262  1  0.40202800  0.35688000  0.97759100  1
  C  263  1  0.34473600  0.33854200  0.02848400  1
  C  264  1  0.35435500  0.34155800  0.05887900  1
  C  265  1  0.34860600  0.37124600  0.08800600  1
  C  266  1  0.33382500  0.39776800  0.08508600  1
  C  267  1  0.32468800  0.39462800  0.05469000  1
  C  282  1  0.48828600  0.41429800  0.98169400  1
  C  285  1  0.16949100  0.42933800  0.97859300  1
  C  287  1  0.35562400  0.37525200  0.11887900  1
  C  288  1  0.44227000  0.34816300  0.28154200  1
  C  289  1  0.42738100  0.32880800  0.29442800  1
  C  290  1  0.44282700  0.33322100  0.32420100  1
  C  291  1  0.47523600  0.35648400  0.34272100  1
  C  292  1  0.48931000  0.37620300  0.32984400  1
  C  293  1  0.47385400  0.37196700  0.30002600  1
  C  294  1  0.48693900  0.36313700  0.37692300  1
  C  295  1  0.44739200  0.38375100  0.39598400  1
  C  296  1  0.44420300  0.41658700  0.40373100  1
  C  297  1  0.40795600  0.43610000  0.41993300  1
  C  298  1  0.37188200  0.42370900  0.42875700  1
  C  299  1  0.37357400  0.39071300  0.42008500  1
  C  300  1  0.41005600  0.37124300  0.40372200  1
  C  301  1  0.49449100  0.33229900  0.37900100  1
  C  302  1  0.53036000  0.38091800  0.39059000  1
  C  303  1  0.53650300  0.40360700  0.42403500  1
  C  304  1  0.57696700  0.41864400  0.43681300  1
  C  305  1  0.61434200  0.41108200  0.41694800  1
  C  306  1  0.60929800  0.38721800  0.38395900  1
  C  307  1  0.56872700  0.37223200  0.37137400  1
  C  308  1  0.51123600  0.30301100  0.35289100  1
  C  309  1  0.50062500  0.30564700  0.41214100  1
  C  310  1  0.49149800  0.33292500  0.40903300  1
  C  326  1  0.65516400  0.42546600  0.42876300  1
  C  327  1  0.42541500  0.34304500  0.25188700  1
  C  329  1  0.33598400  0.44377000  0.44393800  1
  C  332  1  0.27327200  0.45733700  0.47755700  1
  C  333  1  0.23226100  0.44215700  0.47337200  1
  C  334  1  0.19502600  0.46024100  0.49035200  1
  C  340  1  0.53190200  0.45890000  0.98829000  1
  C  341  1  0.57299800  0.45462300  0.99929200  1
  C  342  1  0.61020100  0.47172700  0.99835500  1
  C  348  1  0.69888000  0.46365200  0.47334100  1
  C  349  1  0.74005000  0.44847400  0.46912800  1
  C  350  1  0.77718500  0.46657800  0.48634200  1
  C  356  1  0.10707600  0.46311200  0.99879200  1
  C  357  1  0.06608400  0.45887400  0.00976100  1
  C  362  1  0.41916700  0.35985600  0.21175200  1
  C  363  1  0.41296200  0.38916200  0.21155600  1
  C  364  1  0.39981100  0.38930400  0.18311100  1
  C  365  1  0.39262700  0.35994500  0.15371400  1
  C  366  1  0.39959600  0.33063500  0.15375200  1
  C  367  1  0.41241000  0.33049400  0.18226000  1
  C  377  1  0.60889600  0.05949200  0.36242600  1
  C  378  1  0.59411900  0.02724100  0.34296700  1
  C  379  1  0.60962000  0.00185100  0.34730700  1
  C  380  1  0.64195800  0.00658000  0.37060500  1
  C  381  1  0.65593300  0.03919000  0.39042300  1
  C  382  1  0.64041500  0.06480500  0.38626500  1
  C  383  1  0.65365400  0.97904300  0.37726500  1
  C  384  1  0.61415300  0.98065700  0.39791400  1
  C  385  1  0.61107500  0.00570300  0.43077700  1
  C  386  1  0.57484400  0.00905000  0.45030100  1
  C  387  1  0.53871800  0.98790800  0.43786800  1
  C  388  1  0.69704900  0.98313500  0.39503600  1
  C  389  1  0.78089900  0.98703100  0.42529000  1
  C  390  1  0.77591100  0.99621200  0.40146900  1
  C  391  1  0.73538200  0.99377300  0.38643200  1
  C  400  1  0.82163200  0.98967900  0.43976200  1
  C  401  1  0.59194400  0.08407600  0.35743500  1
  C  403  1  0.50283600  0.99279400  0.45789800  1
  C  406  1  0.27555500  0.26717700  0.91191000  1
  C  407  1  0.26079600  0.27995800  0.94416500  1
  C  408  1  0.30704800  0.28571300  0.90659100  1
  C  411  1  0.25860800  0.23760200  0.88733200  1
  C  413  1  0.52085200  0.27561000  0.35587400  1
  C  414  1  0.51525600  0.27617700  0.38558000  1
  C  417  1  0.52226400  0.24929300  0.38956500  1
  C  418  1  0.04032100  0.99353000  0.58080300  1
  C  419  1  0.07679900  0.99670000  0.60028100  1
  C  420  1  0.16120800  0.01106000  0.63922400  1
  C  421  1  0.20318800  0.98480600  0.56798200  1
  C  422  1  0.24359200  0.98245200  0.55286800  1
  C  423  1  0.17801400  0.01423600  0.66849300  1
  C  424  1  0.18760100  0.04462100  0.69588400  1
  C  425  1  0.18192700  0.07374500  0.69530700  1
  C  426  1  0.16723400  0.07084200  0.66585700  1
  C  427  1  0.15813000  0.04045300  0.63858500  1
  C  437  1  0.18889200  0.10460100  0.72219200  1
  C  438  1  0.94040800  0.98447900  0.51419700  1
  C  439  1  0.89942500  0.99546600  0.52941200  1
  C  440  1  0.86218300  0.99431700  0.51132900  1
  C  441  1  0.86524900  0.98308400  0.47777100  1
  C  448  1  0.40636800  0.98496300  0.52315600  1
  C  449  1  0.44356400  0.98402800  0.50511000  1
  C  455  1  0.58578700  0.14100400  0.37416800  1
  C  456  1  0.57957500  0.17050700  0.40347200  1
  C  457  1  0.56641500  0.19908700  0.40360700  1
  C  458  1  0.55922800  0.19912500  0.37424600  1
  C  459  1  0.56620900  0.16977100  0.34493900  1
  C  460  1  0.57903100  0.14112600  0.34480300  1
  C  471  1  0.25246200  0.19742900  0.83041300  1
  C  472  1  0.24623700  0.19724600  0.80091900  1
  C  473  1  0.23308600  0.16880400  0.77233600  1
  C  474  1  0.22592200  0.13940700  0.77230200  1
  C  475  1  0.23291000  0.13943200  0.80164100  1
  C  476  1  0.24572500  0.16793900  0.83028800  1
  N  155  1  0.16162900  0.50985100  0.52777700  1
  N  169  1  0.64164800  0.51010100  0.98497800  1
  N  177  1  0.80842100  0.51846200  0.52494700  1
  N  186  1  0.47498800  0.97066800  0.45335000  1
  N  187  1  0.32881000  0.97502400  0.52391100  1
  N  197  1  0.99546800  0.51314600  0.99637700  1
  N  212  1  0.09981400  0.84228200  0.60982200  1
  N  213  1  0.04904300  0.73150500  0.61282200  1
  N  228  1  0.76633000  0.73199700  0.12930900  1
  N  229  1  0.71564400  0.84594400  0.24011500  1
  N  244  1  0.93285700  0.59600200  0.74681600  1
  N  245  1  0.88224000  0.59866700  0.86048500  1
  N  339  1  0.30786900  0.43918900  0.46134900  1
  N  347  1  0.49544000  0.44391300  0.98932200  1
  N  355  1  0.66240300  0.44760300  0.45831500  1
  N  361  1  0.14165300  0.44692700  0.00071900  1
  N  375  1  0.43299900  0.36155900  0.23944200  1
  N  376  1  0.38230700  0.35838700  0.12545600  1
  N  446  1  0.97499000  0.98641000  0.53230600  1
  N  447  1  0.82878900  0.98205200  0.46174900  1
  N  469  1  0.59963900  0.11502600  0.37587200  1
  N  470  1  0.54891400  0.22582900  0.37268600  1
  N  485  1  0.26630700  0.22510500  0.85638900  1
  N  486  1  0.21562100  0.11115900  0.74560200  1
  O  151  1  0.24388600  0.54136000  0.53760700  1
  O  152  1  0.31586500  0.50602100  0.50594700  1
  O  158  1  0.91101000  0.96037700  0.43016600  1
  O  159  1  0.98303100  0.96413700  0.46551800  1
  O  165  1  0.48965600  0.48697700  0.96745100  1
  O  166  1  0.56168000  0.51970700  0.96529900  1
  O  173  1  0.65652000  0.51250500  0.50140700  1
  O  175  1  0.72836500  0.54748700  0.53427600  1
  O  182  1  0.32299000  0.95318700  0.45898700  1
  O  184  1  0.39500100  0.95104000  0.42409600  1
  O  193  1  0.07769900  0.52307500  0.97472800  1
  O  194  1  0.14971400  0.49147500  0.97848800  1
  O  204  1  0.06419300  0.73007700  0.55313300  1
  O  206  1  0.08800700  0.78535700  0.55336400  1
  O  207  1  0.06221000  0.78819300  0.66937000  1
  O  208  1  0.08824500  0.84304200  0.66965100  1
  O  220  1  0.73073300  0.78770300  0.24155400  1
  O  222  1  0.75448400  0.73260500  0.18632100  1
  O  223  1  0.72888100  0.84570500  0.18333500  1
  O  224  1  0.75484200  0.79107700  0.12851300  1
  O  236  1  0.89735600  0.53908500  0.80216500  1
  O  238  1  0.92106600  0.53944300  0.74715500  1
  O  239  1  0.89544500  0.65530400  0.86050200  1
  O  240  1  0.92133500  0.65573000  0.80598100  1
  O  335  1  0.15583400  0.44489500  0.48462000  1
  O  337  1  0.22780700  0.41000300  0.45180900  1
  O  344  1  0.57765100  0.43399800  0.01100000  1
  O  345  1  0.64967900  0.46557600  0.00723200  1
  O  351  1  0.74482600  0.41615800  0.44846700  1
  O  352  1  0.81670900  0.45161900  0.48024700  1
  O  358  1  0.98965100  0.47004800  0.01820000  1
  O  359  1  0.06166300  0.43730700  0.02035000  1
  O  368  1  0.39746000  0.41806900  0.18368200  1
  O  370  1  0.42120800  0.41794800  0.23878700  1
  O  371  1  0.39548700  0.30185500  0.12572600  1
  O  372  1  0.42143600  0.30167000  0.18036300  1
  O  442  1  0.82299600  0.00392300  0.52668600  1
  O  444  1  0.89501300  0.00607400  0.56157300  1
  O  450  1  0.41103400  0.99664400  0.55548300  1
  O  451  1  0.48305200  0.99288500  0.52012900  1
  O  461  1  0.56406000  0.22728000  0.43237000  1
  O  463  1  0.58782500  0.17206400  0.43225900  1
  O  464  1  0.56211100  0.16900700  0.31615500  1
  O  465  1  0.58807600  0.11419500  0.31598900  1
  O  477  1  0.23071500  0.16937600  0.74414300  1
  O  479  1  0.25446400  0.22448100  0.79936900  1
  O  480  1  0.22882400  0.11140400  0.80239300  1
  O  481  1  0.25478300  0.16604700  0.85721200  1
