# generated using pymatgen
data_CuH12(C5N)3
_symmetry_space_group_name_H-M   'P 1'
_cell_length_a   14.38988000
_cell_length_b   14.45638000
_cell_length_c   17.77411310
_cell_angle_alpha   104.99509486
_cell_angle_beta   105.23784356
_cell_angle_gamma   109.77108000
_symmetry_Int_Tables_number   1
_chemical_formula_structural   CuH12(C5N)3
_chemical_formula_sum   'Cu8 H96 C120 N24'
_cell_volume   3101.36033860
_cell_formula_units_Z   8
loop_
 _symmetry_equiv_pos_site_id
 _symmetry_equiv_pos_as_xyz
  1  'x, y, z'
loop_
 _atom_site_type_symbol
 _atom_site_label
 _atom_site_symmetry_multiplicity
 _atom_site_fract_x
 _atom_site_fract_y
 _atom_site_fract_z
 _atom_site_occupancy
  Cu  Cu0  1  0.99117000  0.21391000  0.24536000  1
  Cu  Cu1  1  0.46364000  0.74858000  0.25518000  1
  Cu  Cu2  1  0.74847000  0.46364000  0.75558000  1
  Cu  Cu3  1  0.21151000  0.98873000  0.74342000  1
  Cu  Cu4  1  0.25147000  0.53638000  0.24444000  1
  Cu  Cu5  1  0.78846000  0.01126000  0.25655000  1
  Cu  Cu6  1  0.00883000  0.78609000  0.75462000  1
  Cu  Cu7  1  0.53639000  0.25138000  0.74481000  1
  H  H8  1  0.11434000  0.16111000  0.37612000  1
  H  H9  1  0.22122000  0.06218000  0.38429000  1
  H  H10  1  0.13541000  0.97233000  0.11372000  1
  H  H11  1  0.03488000  0.07851000  0.11788000  1
  H  H12  1  0.10800000  0.31765000  0.43751000  1
  H  H13  1  0.98795000  0.41423000  0.24867000  1
  H  H14  1  0.15865000  0.48768000  0.54828000  1
  H  H15  1  0.02730000  0.58588000  0.35115000  1
  H  H16  1  0.25090000  0.65561000  0.62476000  1
  H  H17  1  0.01818000  0.70237000  0.44648000  1
  H  H18  1  0.07081000  0.87380000  0.55652000  1
  H  H19  1  0.29232000  0.82812000  0.72815000  1
  H  H20  1  0.28234000  0.74376000  0.12486000  1
  H  H21  1  0.17468000  0.84182000  0.11675000  1
  H  H22  1  0.35466000  0.02575000  0.38584000  1
  H  H23  1  0.45644000  0.92074000  0.38208000  1
  H  H24  1  0.37881000  0.67579000  0.06180000  1
  H  H25  1  0.66356000  0.74557000  0.25049000  1
  H  H26  1  0.43810000  0.61145000  0.95066000  1
  H  H27  1  0.73280000  0.67922000  0.14784000  1
  H  H28  1  0.53097000  0.62318000  0.87188000  1
  H  H29  1  0.75308000  0.57025000  0.05448000  1
  H  H30  1  0.81409000  0.50750000  0.94392000  1
  H  H31  1  0.60303000  0.56020000  0.76945000  1
  H  H32  1  0.74274000  0.28368000  0.62594000  1
  H  H33  1  0.84091000  0.17631000  0.61718000  1
  H  H34  1  0.02734000  0.35313000  0.88623000  1
  H  H35  1  0.92241000  0.45507000  0.88325000  1
  H  H36  1  0.67495000  0.37996000  0.56287000  1
  H  H37  1  0.74611000  0.66279000  0.75094000  1
  H  H38  1  0.61064000  0.43917000  0.45157000  1
  H  H39  1  0.68027000  0.73234000  0.64816000  1
  H  H40  1  0.62303000  0.53151000  0.37249000  1
  H  H41  1  0.57050000  0.75315000  0.55359000  1
  H  H42  1  0.50855000  0.81419000  0.44274000  1
  H  H43  1  0.56136000  0.60371000  0.26975000  1
  H  H44  1  0.16032000  0.11079000  0.87393000  1
  H  H45  1  0.06358000  0.21961000  0.88357000  1
  H  H46  1  0.97094000  0.13676000  0.61311000  1
  H  H47  1  0.07499000  0.03400000  0.61572000  1
  H  H48  1  0.31504000  0.10586000  0.93466000  1
  H  H49  1  0.41398000  0.98643000  0.74785000  1
  H  H50  1  0.48616000  0.15839000  0.04658000  1
  H  H51  1  0.58678000  0.02729000  0.85165000  1
  H  H52  1  0.65452000  0.25041000  0.12378000  1
  H  H53  1  0.70409000  0.01934000  0.94838000  1
  H  H54  1  0.87651000  0.07347000  0.05947000  1
  H  H55  1  0.82841000  0.29364000  0.22827000  1
  H  H56  1  0.25725000  0.71632000  0.37406000  1
  H  H57  1  0.15909000  0.82371000  0.38282000  1
  H  H58  1  0.97262000  0.64685000  0.11377000  1
  H  H59  1  0.07762000  0.54499000  0.11675000  1
  H  H60  1  0.32507000  0.62006000  0.43716000  1
  H  H61  1  0.25389000  0.33723000  0.24907000  1
  H  H62  1  0.38933000  0.56084000  0.54844000  1
  H  H63  1  0.31971000  0.26769000  0.35183000  1
  H  H64  1  0.37695000  0.46851000  0.62752000  1
  H  H65  1  0.42948000  0.24682000  0.44640000  1
  H  H66  1  0.49144000  0.18579000  0.55725000  1
  H  H67  1  0.43866000  0.39633000  0.73026000  1
  H  H68  1  0.83967000  0.88921000  0.12605000  1
  H  H69  1  0.93641000  0.78039000  0.11641000  1
  H  H70  1  0.02906000  0.86326000  0.38689000  1
  H  H71  1  0.92503000  0.96604000  0.38427000  1
  H  H72  1  0.68494000  0.89415000  0.06531000  1
  H  H73  1  0.58603000  0.01357000  0.25211000  1
  H  H74  1  0.51384000  0.84163000  0.95339000  1
  H  H75  1  0.41324000  0.97270000  0.14834000  1
  H  H76  1  0.34544000  0.74960000  0.87621000  1
  H  H77  1  0.29587000  0.98062000  0.05160000  1
  H  H78  1  0.12344000  0.92653000  0.94052000  1
  H  H79  1  0.17154000  0.70635000  0.77171000  1
  H  H80  1  0.88563000  0.83887000  0.62387000  1
  H  H81  1  0.77877000  0.93782000  0.61572000  1
  H  H82  1  0.86457000  0.02766000  0.88629000  1
  H  H83  1  0.96511000  0.92148000  0.88213000  1
  H  H84  1  0.89197000  0.68234000  0.56248000  1
  H  H85  1  0.01206000  0.58576000  0.75135000  1
  H  H86  1  0.84132000  0.51232000  0.45173000  1
  H  H87  1  0.97272000  0.41412000  0.64885000  1
  H  H88  1  0.74909000  0.34439000  0.37524000  1
  H  H89  1  0.98181000  0.29761000  0.55352000  1
  H  H90  1  0.92918000  0.12621000  0.44349000  1
  H  H91  1  0.70771000  0.17190000  0.27186000  1
  H  H92  1  0.71765000  0.25625000  0.87515000  1
  H  H93  1  0.82531000  0.15819000  0.88325000  1
  H  H94  1  0.64532000  0.97424000  0.61417000  1
  H  H95  1  0.54354000  0.07925000  0.61792000  1
  H  H96  1  0.62117000  0.32419000  0.93821000  1
  H  H97  1  0.33645000  0.25443000  0.74951000  1
  H  H98  1  0.56193000  0.38860000  0.04938000  1
  H  H99  1  0.26719000  0.32080000  0.85219000  1
  H  H100  1  0.46899000  0.37681000  0.12811000  1
  H  H101  1  0.24694000  0.42976000  0.94553000  1
  H  H102  1  0.18592000  0.49249000  0.05609000  1
  H  H103  1  0.39692000  0.43978000  0.23054000  1
  C  C104  1  0.12251000  0.12007000  0.31946000  1
  C  C105  1  0.18346000  0.06434000  0.32349000  1
  C  C106  1  0.19206000  0.00707000  0.24951000  1
  C  C107  1  0.13387000  0.01275000  0.17390000  1
  C  C108  1  0.07693000  0.07262000  0.17575000  1
  C  C109  1  0.09062000  0.37868000  0.42061000  1
  C  C110  1  0.02245000  0.43206000  0.31594000  1
  C  C111  1  0.11993000  0.47560000  0.48288000  1
  C  C112  1  0.04535000  0.52878000  0.37408000  1
  C  C113  1  0.09760000  0.55588000  0.46166000  1
  C  C114  1  0.12833000  0.65913000  0.52389000  1
  C  C115  1  0.20714000  0.69985000  0.60652000  1
  C  C116  1  0.08125000  0.72743000  0.50729000  1
  C  C117  1  0.11019000  0.82390000  0.56926000  1
  C  C118  1  0.23250000  0.79780000  0.66477000  1
  C  C119  1  0.29750000  0.80795000  0.18133000  1
  C  C120  1  0.23751000  0.86466000  0.17714000  1
  C  C121  1  0.25384000  0.94676000  0.25078000  1
  C  C122  1  0.33505000  0.96421000  0.32604000  1
  C  C123  1  0.39313000  0.90534000  0.32440000  1
  C  C124  1  0.45691000  0.67539000  0.07883000  1
  C  C125  1  0.61410000  0.71186000  0.18342000  1
  C  C126  1  0.49164000  0.64038000  0.01624000  1
  C  C127  1  0.65276000  0.67439000  0.12512000  1
  C  C128  1  0.59252000  0.63755000  0.03728000  1
  C  C129  1  0.63355000  0.60280000  0.97495000  1
  C  C130  1  0.59263000  0.59697000  0.89099000  1
  C  C131  1  0.71701000  0.57008000  0.99231000  1
  C  C132  1  0.75170000  0.53420000  0.93025000  1
  C  C133  1  0.63336000  0.56249000  0.83310000  1
  C  C134  1  0.80760000  0.29844000  0.68225000  1
  C  C135  1  0.86440000  0.23857000  0.67766000  1
  C  C136  1  0.94727000  0.25420000  0.75099000  1
  C  C137  1  0.96538000  0.33441000  0.82654000  1
  C  C138  1  0.90634000  0.39242000  0.82531000  1
  C  C139  1  0.67432000  0.45737000  0.57953000  1
  C  C140  1  0.71197000  0.61381000  0.68383000  1
  C  C141  1  0.63938000  0.49228000  0.51694000  1
  C  C142  1  0.67480000  0.65271000  0.62542000  1
  C  C143  1  0.63732000  0.59277000  0.53761000  1
  C  C144  1  0.60310000  0.63392000  0.47504000  1
  C  C145  1  0.59724000  0.59324000  0.39141000  1
  C  C146  1  0.57083000  0.71732000  0.49195000  1
  C  C147  1  0.53547000  0.75214000  0.42949000  1
  C  C148  1  0.56355000  0.63402000  0.33318000  1
  C  C149  1  0.11937000  0.12018000  0.81764000  1
  C  C150  1  0.06477000  0.18212000  0.82252000  1
  C  C151  1  0.00718000  0.19197000  0.74901000  1
  C  C152  1  0.01155000  0.13422000  0.67300000  1
  C  C153  1  0.07035000  0.07609000  0.67395000  1
  C  C154  1  0.37709000  0.08944000  0.91859000  1
  C  C155  1  0.43152000  0.02121000  0.81501000  1
  C  C156  1  0.47461000  0.11954000  0.98139000  1
  C  C157  1  0.52896000  0.04487000  0.87385000  1
  C  C158  1  0.55557000  0.09726000  0.96122000  1
  C  C159  1  0.65954000  0.12869000  0.02418000  1
  C  C160  1  0.69966000  0.20736000  0.10639000  1
  C  C161  1  0.72884000  0.08248000  0.00868000  1
  C  C162  1  0.82589000  0.11217000  0.07139000  1
  C  C163  1  0.79831000  0.23364000  0.16528000  1
  C  C164  1  0.19237000  0.70157000  0.31774000  1
  C  C165  1  0.13555000  0.76138000  0.32234000  1
  C  C166  1  0.05273000  0.74584000  0.24900000  1
  C  C167  1  0.03461000  0.66558000  0.17345000  1
  C  C168  1  0.09364000  0.60754000  0.17469000  1
  C  C169  1  0.32573000  0.54268000  0.42045000  1
  C  C170  1  0.28803000  0.38624000  0.31617000  1
  C  C171  1  0.36064000  0.50772000  0.48306000  1
  C  C172  1  0.32519000  0.34732000  0.37458000  1
  C  C173  1  0.36267000  0.40729000  0.46237000  1
  C  C174  1  0.39694000  0.36610000  0.52500000  1
  C  C175  1  0.40272000  0.40674000  0.60855000  1
  C  C176  1  0.42908000  0.28262000  0.50802000  1
  C  C177  1  0.46446000  0.24781000  0.57050000  1
  C  C178  1  0.43644000  0.36598000  0.66684000  1
  C  C179  1  0.88064000  0.87984000  0.18235000  1
  C  C180  1  0.93521000  0.81787000  0.17746000  1
  C  C181  1  0.99280000  0.80804000  0.25098000  1
  C  C182  1  0.98844000  0.86582000  0.32701000  1
  C  C183  1  0.92964000  0.92392000  0.32604000  1
  C  C184  1  0.62297000  0.91067000  0.08139000  1
  C  C185  1  0.56847000  0.97881000  0.18496000  1
  C  C186  1  0.52544000  0.88056000  0.01858000  1
  C  C187  1  0.47104000  0.95513000  0.12615000  1
  C  C188  1  0.44439000  0.90266000  0.03875000  1
  C  C189  1  0.34049000  0.87131000  0.97580000  1
  C  C190  1  0.30029000  0.79262000  0.89360000  1
  C  C191  1  0.27116000  0.91751000  0.99132000  1
  C  C192  1  0.17408000  0.88782000  0.92865000  1
  C  C193  1  0.20161000  0.76631000  0.83470000  1
  C  C194  1  0.87746000  0.87993000  0.68054000  1
  C  C195  1  0.81651000  0.93565000  0.67652000  1
  C  C196  1  0.80793000  0.99294000  0.75051000  1
  C  C197  1  0.86611000  0.98725000  0.82610000  1
  C  C198  1  0.92302000  0.92734000  0.82425000  1
  C  C199  1  0.90929000  0.62128000  0.57937000  1
  C  C200  1  0.97756000  0.56795000  0.68407000  1
  C  C201  1  0.87997000  0.52434000  0.51712000  1
  C  C202  1  0.95469000  0.47121000  0.62590000  1
  C  C203  1  0.90243000  0.44413000  0.53833000  1
  C  C204  1  0.87168000  0.34085000  0.47609000  1
  C  C205  1  0.79287000  0.30016000  0.39348000  1
  C  C206  1  0.91873000  0.27254000  0.49273000  1
  C  C207  1  0.88978000  0.17606000  0.43072000  1
  C  C208  1  0.76749000  0.20220000  0.33523000  1
  C  C209  1  0.70251000  0.19207000  0.81868000  1
  C  C210  1  0.76250000  0.13535000  0.82287000  1
  C  C211  1  0.74615000  0.05324000  0.74924000  1
  C  C212  1  0.66494000  0.03580000  0.67397000  1
  C  C213  1  0.60686000  0.09464000  0.67560000  1
  C  C214  1  0.54311000  0.32466000  0.92119000  1
  C  C215  1  0.38586000  0.28825000  0.81661000  1
  C  C216  1  0.50840000  0.35962000  0.98380000  1
  C  C217  1  0.34727000  0.32570000  0.87492000  1
  C  C218  1  0.40746000  0.36243000  0.96280000  1
  C  C219  1  0.36656000  0.39731000  0.02509000  1
  C  C220  1  0.40732000  0.40299000  0.10905000  1
  C  C221  1  0.28300000  0.42991000  0.00770000  1
  C  C222  1  0.24825000  0.46574000  0.06972000  1
  C  C223  1  0.36657000  0.43746000  0.16688000  1
  N  N224  1  0.06936000  0.12792000  0.24707000  1
  N  N225  1  0.04088000  0.35362000  0.33685000  1
  N  N226  1  0.18526000  0.86216000  0.64906000  1
  N  N227  1  0.37692000  0.82649000  0.25351000  1
  N  N228  1  0.51527000  0.71094000  0.16286000  1
  N  N229  1  0.71201000  0.52902000  0.84955000  1
  N  N230  1  0.82695000  0.37719000  0.75462000  1
  N  N231  1  0.71042000  0.51552000  0.66359000  1
  N  N232  1  0.53049000  0.71273000  0.34927000  1
  N  N233  1  0.12588000  0.06723000  0.74481000  1
  N  N234  1  0.35208000  0.03885000  0.83503000  1
  N  N235  1  0.86384000  0.18746000  0.15067000  1
  N  N236  1  0.17312000  0.62289000  0.24538000  1
  N  N237  1  0.28959000  0.48449000  0.33642000  1
  N  N238  1  0.46958000  0.28731000  0.65073000  1
  N  N239  1  0.87409000  0.93276000  0.25516000  1
  N  N240  1  0.64788000  0.96109000  0.16496000  1
  N  N241  1  0.13616000  0.81264000  0.84932000  1
  N  N242  1  0.93063000  0.87208000  0.75293000  1
  N  N243  1  0.95910000  0.64636000  0.66316000  1
  N  N244  1  0.81473000  0.13784000  0.35094000  1
  N  N245  1  0.62305000  0.17347000  0.74650000  1
  N  N246  1  0.48462000  0.28890000  0.83713000  1
  N  N247  1  0.28810000  0.47113000  0.15047000  1
