# generated using pymatgen
data_H9C18(N3O2)2
_symmetry_space_group_name_H-M   'P 1'
_cell_length_a   20.79100000
_cell_length_b   38.36530000
_cell_length_c   38.36530000
_cell_angle_alpha   90.00000000
_cell_angle_beta   90.00000000
_cell_angle_gamma   90.00000000
_symmetry_Int_Tables_number   1
_chemical_formula_structural   H9C18(N3O2)2
_chemical_formula_sum   'H144 C288 N96 O64'
_cell_volume   30602.19481088
_cell_formula_units_Z   16
loop_
 _symmetry_equiv_pos_site_id
 _symmetry_equiv_pos_as_xyz
  1  'x, y, z'
loop_
 _atom_site_type_symbol
 _atom_site_label
 _atom_site_symmetry_multiplicity
 _atom_site_fract_x
 _atom_site_fract_y
 _atom_site_fract_z
 _atom_site_occupancy
  C  1  1  0.38651900  0.26988900  0.57498800  1
  C  2  1  0.34715000  0.24254900  0.56225200  1
  C  3  1  0.36951500  0.20783400  0.56198100  1
  C  4  1  0.43162500  0.20054500  0.57451300  1
  C  5  1  0.47146400  0.22728000  0.58726200  1
  C  6  1  0.44884200  0.26191300  0.58742300  1
  C  10  1  0.36365100  0.30472800  0.57585000  1
  C  11  1  0.30299200  0.31216700  0.59080700  1
  C  12  1  0.27865500  0.34633600  0.59072800  1
  C  13  1  0.31602500  0.37358700  0.57676000  1
  C  14  1  0.37677400  0.36690900  0.56210100  1
  C  15  1  0.40043100  0.33242000  0.56165300  1
  C  23  1  0.88680800  0.30413600  0.99920400  1
  C  24  1  0.84734200  0.33145000  0.01190300  1
  C  25  1  0.86958800  0.36619000  0.01212900  1
  C  26  1  0.93166000  0.37353000  0.99957000  1
  C  27  1  0.97157800  0.34682300  0.98683600  1
  C  28  1  0.94907400  0.31216700  0.98671900  1
  C  32  1  0.86407600  0.26926900  0.99838500  1
  C  33  1  0.80345300  0.26173600  0.98343200  1
  C  34  1  0.77929100  0.22753000  0.98349700  1
  C  35  1  0.81681000  0.20034100  0.99747100  1
  C  36  1  0.87752400  0.20711200  0.01213000  1
  C  37  1  0.90100000  0.24163600  0.01258700  1
  C  45  1  0.63649600  0.49903600  0.76992700  1
  C  46  1  0.59720000  0.51182900  0.74258700  1
  C  47  1  0.61962400  0.51213900  0.70788400  1
  C  48  1  0.68167000  0.49951100  0.70059800  1
  C  49  1  0.72141200  0.48666800  0.72733100  1
  C  50  1  0.69875800  0.48650700  0.76195900  1
  C  54  1  0.61358800  0.49818700  0.80475500  1
  C  55  1  0.55289800  0.48325600  0.81216800  1
  C  56  1  0.52849200  0.48337100  0.84632400  1
  C  57  1  0.56578800  0.49738400  0.87358000  1
  C  58  1  0.62656000  0.51202500  0.86692000  1
  C  59  1  0.65032000  0.51240800  0.83244900  1
  C  67  1  0.13628100  0.07503600  0.80398100  1
  C  68  1  0.09708500  0.06210500  0.83130000  1
  C  69  1  0.11948900  0.06183400  0.86600800  1
  C  70  1  0.18144400  0.07458500  0.87330600  1
  C  71  1  0.22107900  0.08756700  0.84659200  1
  C  72  1  0.19843200  0.08771400  0.81196500  1
  C  76  1  0.11338000  0.07587000  0.76915000  1
  C  77  1  0.05261300  0.09070300  0.76174200  1
  C  78  1  0.02824300  0.09059400  0.72758100  1
  C  79  1  0.06567100  0.07671500  0.70030900  1
  C  80  1  0.12655900  0.06220600  0.70695600  1
  C  81  1  0.15023700  0.06176500  0.74144300  1
  C  89  1  0.87223800  0.76334000  0.11522300  1
  C  90  1  0.81707900  0.74398100  0.12499700  1
  C  91  1  0.81829600  0.70757900  0.12922200  1
  C  92  1  0.87727400  0.68958100  0.12654400  1
  C  93  1  0.93392300  0.70742200  0.11693500  1
  C  94  1  0.92979800  0.74376200  0.11042000  1
  C  98  1  0.87023600  0.80114200  0.11343200  1
  C  99  1  0.81210600  0.82031600  0.10914100  1
  C  100  1  0.80896500  0.85700000  0.11217500  1
  C  101  1  0.86673500  0.87574900  0.11734300  1
  C  102  1  0.92596800  0.85790200  0.11959600  1
  C  103  1  0.92644400  0.82123300  0.11919700  1
  C  111  1  0.37212600  0.81059600  0.45871100  1
  C  112  1  0.31692100  0.82995700  0.44900900  1
  C  113  1  0.31809000  0.86636500  0.44481800  1
  C  114  1  0.37707100  0.88436900  0.44743800  1
  C  115  1  0.43375400  0.86654000  0.45700100  1
  C  116  1  0.42968500  0.83019200  0.46346800  1
  C  120  1  0.37016000  0.77278600  0.46047000  1
  C  121  1  0.31203400  0.75359400  0.46470800  1
  C  122  1  0.30895500  0.71690500  0.46171400  1
  C  123  1  0.36675900  0.69818000  0.45660000  1
  C  124  1  0.42600000  0.71603400  0.45447500  1
  C  125  1  0.42642900  0.75270300  0.45483800  1
  C  133  1  0.12216300  0.95875300  0.26345400  1
  C  134  1  0.06692700  0.94904400  0.24412500  1
  C  135  1  0.06803700  0.94485800  0.20771300  1
  C  136  1  0.12700300  0.94744600  0.18969100  1
  C  137  1  0.18371900  0.95699900  0.20749400  1
  C  138  1  0.17970200  0.96348200  0.24384100  1
  C  142  1  0.12023400  0.96053600  0.30125900  1
  C  143  1  0.06214500  0.96489200  0.32045900  1
  C  144  1  0.05906800  0.96201900  0.35716100  1
  C  145  1  0.11685300  0.95675900  0.37586800  1
  C  146  1  0.17605100  0.95446800  0.35799500  1
  C  147  1  0.17647900  0.95481500  0.32132900  1
  C  155  1  0.62228800  0.61514900  0.31066100  1
  C  156  1  0.56709600  0.62492100  0.32999600  1
  C  157  1  0.56823100  0.62910200  0.36640900  1
  C  158  1  0.62717000  0.62639100  0.38443800  1
  C  159  1  0.68383400  0.61677000  0.36661500  1
  C  160  1  0.67980100  0.61030900  0.33026900  1
  C  164  1  0.62035000  0.61342900  0.27285000  1
  C  165  1  0.56223400  0.60917500  0.25365100  1
  C  166  1  0.55917000  0.61219600  0.21696200  1
  C  167  1  0.61697800  0.61731800  0.19824200  1
  C  168  1  0.67618400  0.61954600  0.21612000  1
  C  169  1  0.67662000  0.61910800  0.25278600  1
  C  177  1  0.62925200  0.21081600  0.62182400  1
  C  178  1  0.67194400  0.22325500  0.64751900  1
  C  180  1  0.72234400  0.16726300  0.65305300  1
  C  181  1  0.68182800  0.15330900  0.62673800  1
  C  182  1  0.63591000  0.17562000  0.61132300  1
  C  184  1  0.77063600  0.14748200  0.67001900  1
  C  185  1  0.78642900  0.15063600  0.70591600  1
  C  186  1  0.83700800  0.12978000  0.71920900  1
  C  187  1  0.87054700  0.10636200  0.69741900  1
  C  188  1  0.85251200  0.10425300  0.66211800  1
  C  199  1  0.92254800  0.08754200  0.70877800  1
  C  200  1  0.58026500  0.23178500  0.60926300  1
  C  203  1  0.12922700  0.36337000  0.95210200  1
  C  204  1  0.17202700  0.35085800  0.92649500  1
  C  206  1  0.22227300  0.40687000  0.92075600  1
  C  207  1  0.18162700  0.42090300  0.94696900  1
  C  208  1  0.13576100  0.39861200  0.96246500  1
  C  210  1  0.27059800  0.42660600  0.90376600  1
  C  211  1  0.28663700  0.42327500  0.86791600  1
  C  212  1  0.33728900  0.44408100  0.85461800  1
  C  213  1  0.37063700  0.46763300  0.87634800  1
  C  214  1  0.35234300  0.46992700  0.91159900  1
  C  225  1  0.42276900  0.48636900  0.86501500  1
  C  226  1  0.08032300  0.34239000  0.96475100  1
  C  229  1  0.87905800  0.45187100  0.71086600  1
  C  230  1  0.92187000  0.42626200  0.72335900  1
  C  232  1  0.97232900  0.42069700  0.66738900  1
  C  233  1  0.93167600  0.44691900  0.65337600  1
  C  234  1  0.88567600  0.46231600  0.67565100  1
  C  236  1  0.02077700  0.40380200  0.64766300  1
  C  237  1  0.03678500  0.36793600  0.65086300  1
  C  238  1  0.08749800  0.35471600  0.63005600  1
  C  239  1  0.12095500  0.37654000  0.60663600  1
  C  240  1  0.10268300  0.41180400  0.60446700  1
  C  251  1  0.17304000  0.36524400  0.58783800  1
  C  252  1  0.83006600  0.46444800  0.73183200  1
  C  255  1  0.37838000  0.12279800  0.86321100  1
  C  256  1  0.42151900  0.14824500  0.85071300  1
  C  258  1  0.47202200  0.15367200  0.90668600  1
  C  259  1  0.43097000  0.12765200  0.92072700  1
  C  260  1  0.38480400  0.11240200  0.89845700  1
  C  262  1  0.52081200  0.17031500  0.92638000  1
  C  263  1  0.53754400  0.20607800  0.92313500  1
  C  264  1  0.58857400  0.21901000  0.94389900  1
  C  265  1  0.62165400  0.19700500  0.96731300  1
  C  266  1  0.60267400  0.16185500  0.96951000  1
  C  277  1  0.67400800  0.20796000  0.98609600  1
  C  278  1  0.32947900  0.11020800  0.84217700  1
  C  281  1  0.10094800  0.68012400  0.11597800  1
  C  282  1  0.15209400  0.70128400  0.12767900  1
  C  284  1  0.21985900  0.65178400  0.13891700  1
  C  285  1  0.17068700  0.62907000  0.12680500  1
  C  286  1  0.11120200  0.64370900  0.11574200  1
  C  288  1  0.28192300  0.64085200  0.15053600  1
  C  289  1  0.31220300  0.65469200  0.18070300  1
  C  290  1  0.37621500  0.64445400  0.18833000  1
  C  291  1  0.41072500  0.62113900  0.16666600  1
  C  292  1  0.37756200  0.60810100  0.13725100  1
  C  303  1  0.47549400  0.61318400  0.17246600  1
  C  304  1  0.04474100  0.69581000  0.10443100  1
  C  307  1  0.60080800  0.89387200  0.45794700  1
  C  308  1  0.65204200  0.87273300  0.44632000  1
  C  310  1  0.71971500  0.92226700  0.43507000  1
  C  311  1  0.67045800  0.94496200  0.44711700  1
  C  312  1  0.61096800  0.93029500  0.45814000  1
  C  314  1  0.78176600  0.93323000  0.42346600  1
  C  315  1  0.81211600  0.91938200  0.39332100  1
  C  316  1  0.87610400  0.92966500  0.38570500  1
  C  317  1  0.91053800  0.95301900  0.40736000  1
  C  318  1  0.87731600  0.96605400  0.43675600  1
  C  329  1  0.97532300  0.96096600  0.40159900  1
  C  330  1  0.54459400  0.87814900  0.46943700  1
  C  333  1  0.35070900  0.95793000  0.18011600  1
  C  334  1  0.40187100  0.94623900  0.20127000  1
  C  336  1  0.46959600  0.93497900  0.15175900  1
  C  337  1  0.42041200  0.94708900  0.12905200  1
  C  338  1  0.36093400  0.95815400  0.14369800  1
  C  340  1  0.53166800  0.92337500  0.14082200  1
  C  341  1  0.56197400  0.89322000  0.15467500  1
  C  342  1  0.62597200  0.88558800  0.14441700  1
  C  343  1  0.66045600  0.90724300  0.12108400  1
  C  344  1  0.62727100  0.93664200  0.10803200  1
  C  355  1  0.72524200  0.90145900  0.11315400  1
  C  356  1  0.29450100  0.96947100  0.19581000  1
  C  359  1  0.85070400  0.61573300  0.39402800  1
  C  360  1  0.90176000  0.62748300  0.37283100  1
  C  362  1  0.96961600  0.63876900  0.42228500  1
  C  363  1  0.92051800  0.62663600  0.44503400  1
  C  364  1  0.86102600  0.61552700  0.43043800  1
  C  366  1  0.03169500  0.65040700  0.43317500  1
  C  367  1  0.06194400  0.68056500  0.41928700  1
  C  368  1  0.12595400  0.68822000  0.42950200  1
  C  369  1  0.16050600  0.66659100  0.45283100  1
  C  370  1  0.12737500  0.63719200  0.46592300  1
  C  381  1  0.22528500  0.67241200  0.46074900  1
  C  382  1  0.79450200  0.60410500  0.37839100  1
  C  385  1  0.26244000  0.99019300  0.41709800  1
  C  386  1  0.30314400  0.99433500  0.44623600  1
  C  388  1  0.25470100  0.04908800  0.46249800  1
  C  389  1  0.21196500  0.04629100  0.43355000  1
  C  390  1  0.21748400  0.01712400  0.41102500  1
  C  392  1  0.25889100  0.07828900  0.48587300  1
  C  393  1  0.29810900  0.07966500  0.51639300  1
  C  394  1  0.30212900  0.11145800  0.53502200  1
  C  395  1  0.26910500  0.14172700  0.52401200  1
  C  396  1  0.22918900  0.13861000  0.49456600  1
  C  407  1  0.28040500  0.17402500  0.53895300  1
  C  408  1  0.26956400  0.96069300  0.39625300  1
  C  411  1  0.76254100  0.58369100  0.15698700  1
  C  412  1  0.80354000  0.57943200  0.12798400  1
  C  414  1  0.75459800  0.52488500  0.11148600  1
  C  415  1  0.71155800  0.52779900  0.14028600  1
  C  416  1  0.71718000  0.55691700  0.16286500  1
  C  418  1  0.75868400  0.49569500  0.08810200  1
  C  419  1  0.79776300  0.49433200  0.05753400  1
  C  420  1  0.80176400  0.46253200  0.03891500  1
  C  421  1  0.76889400  0.43223900  0.04999600  1
  C  422  1  0.72906500  0.43535100  0.07948100  1
  C  433  1  0.78036200  0.39992100  0.03513000  1
  C  434  1  0.76972700  0.61317100  0.17785900  1
  C  437  1  0.51242800  0.65695000  0.49026000  1
  C  438  1  0.55347000  0.62796800  0.49453200  1
  C  440  1  0.50459300  0.61148700  0.54910200  1
  C  441  1  0.46153000  0.64027800  0.54618600  1
  C  442  1  0.46709200  0.66283800  0.51705000  1
  C  444  1  0.50878200  0.58814500  0.57832100  1
  C  445  1  0.54791400  0.55759700  0.57969200  1
  C  446  1  0.55197400  0.53899700  0.61150200  1
  C  447  1  0.51910400  0.55008800  0.64179300  1
  C  448  1  0.47923500  0.57955200  0.63867300  1
  C  459  1  0.53054900  0.53520200  0.67409800  1
  C  460  1  0.51952200  0.67778600  0.46074700  1
  C  463  1  0.01247600  0.91689000  0.08385600  1
  C  464  1  0.05324700  0.94599200  0.07965500  1
  C  466  1  0.00494800  0.96213400  0.02482900  1
  C  467  1  0.96214900  0.93321700  0.02767800  1
  C  468  1  0.96755500  0.91077500  0.05691500  1
  C  470  1  0.00917600  0.98546000  0.99559100  1
  C  471  1  0.04845400  0.01595600  0.99417300  1
  C  472  1  0.05246900  0.03455900  0.96236600  1
  C  473  1  0.01940800  0.02353300  0.93211500  1
  C  474  1  0.97942600  0.99412100  0.93527100  1
  C  485  1  0.03071100  0.03843000  0.89979900  1
  C  486  1  0.01944100  0.89615800  0.11344800  1
  C  489  1  0.47695000  0.59229500  0.42042900  1
  C  490  1  0.43673600  0.58695700  0.44957000  1
  C  492  1  0.47914900  0.52942800  0.46056900  1
  C  493  1  0.52053800  0.53312400  0.43113700  1
  C  494  1  0.51791600  0.56433500  0.41134800  1
  C  496  1  0.47410400  0.49901300  0.48238300  1
  C  497  1  0.43345600  0.49596600  0.51223300  1
  C  498  1  0.43131100  0.46374700  0.53021300  1
  C  499  1  0.46745700  0.43450400  0.51924200  1
  C  500  1  0.50810400  0.43920100  0.49028900  1
  C  511  1  0.45987500  0.40182100  0.53424000  1
  C  512  1  0.47372900  0.62410500  0.40281700  1
  C  515  1  0.97702400  0.98175600  0.15365100  1
  C  516  1  0.93686600  0.98715100  0.12450000  1
  C  518  1  0.97974000  0.04456600  0.11343200  1
  C  519  1  0.02108700  0.04081300  0.14287500  1
  C  520  1  0.01820000  0.00963500  0.16270300  1
  C  522  1  0.97494300  0.07497400  0.09159500  1
  C  523  1  0.93448800  0.07804700  0.06167100  1
  C  524  1  0.93247000  0.11028000  0.04371400  1
  C  525  1  0.96853400  0.13951900  0.05478400  1
  C  526  1  0.00904300  0.13478600  0.08378800  1
  C  537  1  0.96080400  0.17224900  0.03991900  1
  C  538  1  0.97359400  0.94996400  0.17128900  1
  C  541  1  0.22680000  0.92044000  0.48169500  1
  C  542  1  0.18618100  0.94940100  0.48712500  1
  C  544  1  0.22909500  0.96071300  0.54447800  1
  C  545  1  0.27091900  0.93147400  0.54069400  1
  C  546  1  0.26824000  0.91161200  0.50953300  1
  C  548  1  0.22405700  0.98254800  0.57487600  1
  C  549  1  0.18346700  0.01242500  0.57788900  1
  C  550  1  0.18132400  0.03042800  0.61009500  1
  C  551  1  0.21738600  0.01943900  0.63936400  1
  C  552  1  0.25797500  0.99045600  0.63469800  1
  C  563  1  0.20974000  0.03444100  0.67203900  1
  C  564  1  0.22358100  0.90279700  0.44990100  1
  C  567  1  0.72703300  0.65352200  0.09240400  1
  C  568  1  0.68672000  0.62442800  0.08703800  1
  C  570  1  0.72912800  0.61341600  0.02951400  1
  C  571  1  0.77066000  0.64278600  0.03324300  1
  C  572  1  0.76808600  0.66255900  0.06446500  1
  C  574  1  0.72403400  0.59162300  0.99908700  1
  C  575  1  0.68330500  0.56180400  0.99602100  1
  C  576  1  0.68112600  0.54384000  0.96379400  1
  C  577  1  0.71729800  0.55480800  0.93455700  1
  C  578  1  0.75802400  0.58372500  0.93927200  1
  C  589  1  0.70964400  0.53986200  0.90186100  1
  C  590  1  0.72384200  0.67112400  0.12422100  1
  H  7  1  0.30252000  0.24799500  0.55242300  1
  H  8  1  0.47725000  0.28122000  0.59750300  1
  H  9  1  0.44821200  0.17533700  0.57426100  1
  H  16  1  0.27586000  0.29261600  0.60152200  1
  H  17  1  0.29814200  0.39850800  0.57692400  1
  H  18  1  0.44366800  0.32734800  0.54997000  1
  H  29  1  0.80275000  0.32596600  0.02176100  1
  H  30  1  0.97754800  0.29287400  0.97667100  1
  H  31  1  0.94815000  0.39875600  0.99977700  1
  H  38  1  0.77625600  0.28124300  0.97268000  1
  H  39  1  0.79912000  0.17538300  0.99725900  1
  H  40  1  0.94422600  0.24676700  0.02425800  1
  H  51  1  0.55263600  0.52174400  0.74803500  1
  H  52  1  0.72711200  0.47639400  0.78127000  1
  H  53  1  0.69827800  0.49975800  0.67539300  1
  H  60  1  0.52580400  0.47252000  0.79260900  1
  H  61  1  0.54785200  0.49724800  0.89848800  1
  H  62  1  0.69357800  0.52407200  0.82739000  1
  H  73  1  0.05261800  0.05207000  0.82583400  1
  H  74  1  0.22669700  0.09793200  0.79266900  1
  H  75  1  0.19806200  0.07432900  0.89850900  1
  H  82  1  0.02542800  0.10135200  0.78131200  1
  H  83  1  0.04776000  0.07685900  0.67539600  1
  H  84  1  0.19356400  0.05017400  0.74650200  1
  H  95  1  0.77472900  0.75638600  0.13031800  1
  H  96  1  0.97105000  0.75629700  0.10350900  1
  H  97  1  0.87899600  0.66351000  0.13202700  1
  H  104  1  0.76985400  0.80745500  0.10476100  1
  H  105  1  0.86561000  0.90214800  0.12077700  1
  H  106  1  0.96923200  0.80924300  0.12445600  1
  H  117  1  0.27456100  0.81755300  0.44371600  1
  H  118  1  0.47094800  0.81767600  0.47037800  1
  H  119  1  0.37874900  0.91045200  0.44200100  1
  H  126  1  0.26976000  0.76643100  0.46908000  1
  H  127  1  0.36568700  0.67176800  0.45325500  1
  H  128  1  0.46924000  0.76469800  0.44965300  1
  H  139  1  0.02460100  0.94372900  0.25655400  1
  H  140  1  0.22098900  0.97038400  0.25634500  1
  H  141  1  0.12864700  0.94199100  0.16361100  1
  H  148  1  0.01989300  0.96930500  0.30760800  1
  H  149  1  0.11578000  0.95344100  0.40228000  1
  H  150  1  0.21925700  0.94957300  0.30932300  1
  H  161  1  0.52480400  0.63031600  0.31757000  1
  H  162  1  0.72108000  0.60340700  0.31776100  1
  H  163  1  0.62884400  0.63184100  0.41051900  1
  H  170  1  0.51996000  0.60481400  0.26648500  1
  H  171  1  0.61591000  0.62067000  0.17183200  1
  H  172  1  0.71942600  0.62426400  0.26479900  1
  H  183  1  0.60589200  0.16547400  0.59275600  1
  H  190  1  0.84938200  0.13186400  0.74495900  1
  H  191  1  0.87594400  0.08825300  0.64497500  1
  H  192  1  0.66942600  0.24831700  0.65648100  1
  H  201  1  0.92603000  0.06245200  0.70227200  1
  H  202  1  0.58453600  0.25758700  0.60951600  1
  H  209  1  0.10563600  0.40882200  0.98094300  1
  H  216  1  0.34986700  0.44184900  0.82891000  1
  H  217  1  0.37571500  0.48597000  0.92872100  1
  H  218  1  0.16962500  0.32575000  0.91764900  1
  H  227  1  0.42600700  0.51151100  0.87135900  1
  H  228  1  0.08463700  0.31658800  0.96449000  1
  H  235  1  0.85558200  0.48082200  0.66546300  1
  H  242  1  0.10002500  0.32899000  0.63217700  1
  H  243  1  0.12605300  0.42897300  0.58847100  1
  H  244  1  0.91940200  0.41735800  0.74844400  1
  H  253  1  0.17632200  0.37173900  0.56273400  1
  H  254  1  0.83433600  0.46418700  0.75763400  1
  H  261  1  0.35450700  0.09400400  0.90866100  1
  H  268  1  0.60159900  0.24466100  0.94175600  1
  H  269  1  0.62570300  0.14455400  0.98551200  1
  H  270  1  0.41930600  0.15706200  0.82559200  1
  H  279  1  0.67740400  0.20131400  0.01115900  1
  H  280  1  0.33358300  0.11079100  0.81637200  1
  H  287  1  0.07540100  0.62754800  0.10712600  1
  H  294  1  0.39814200  0.65500300  0.20975900  1
  H  295  1  0.39955300  0.59143200  0.12021800  1
  H  296  1  0.14802600  0.72784400  0.12837700  1
  H  305  1  0.50343800  0.60729600  0.15227900  1
  H  306  1  0.04873300  0.71473900  0.08686500  1
  H  313  1  0.57510900  0.94644000  0.46671300  1
  H  320  1  0.89810700  0.91908000  0.36431300  1
  H  321  1  0.89928300  0.98271000  0.45381100  1
  H  322  1  0.64804000  0.84616700  0.44564400  1
  H  331  1  0.00321200  0.96687300  0.42179700  1
  H  332  1  0.54860800  0.85924200  0.48702800  1
  H  339  1  0.32512600  0.96676800  0.12754400  1
  H  346  1  0.64793800  0.86418900  0.15500700  1
  H  347  1  0.64925200  0.95367600  0.09136000  1
  H  348  1  0.39782500  0.94555100  0.22783300  1
  H  357  1  0.75315200  0.92165200  0.10725200  1
  H  358  1  0.29860000  0.98705200  0.21472300  1
  H  365  1  0.82529400  0.60687600  0.44662200  1
  H  372  1  0.14787200  0.70963000  0.41889900  1
  H  373  1  0.14939100  0.62018700  0.48261000  1
  H  374  1  0.89763800  0.62815800  0.34627100  1
  H  383  1  0.25319600  0.65225500  0.46677300  1
  H  384  1  0.79852800  0.58657100  0.35943400  1
  H  391  1  0.18833600  0.01619600  0.38968500  1
  H  398  1  0.33172900  0.11269100  0.55632800  1
  H  399  1  0.20475100  0.15954000  0.48472400  1
  H  400  1  0.33744300  0.97627700  0.45246300  1
  H  409  1  0.24663100  0.19235200  0.53884600  1
  H  410  1  0.30951400  0.94686000  0.39930100  1
  H  417  1  0.68779200  0.55791800  0.18411000  1
  H  424  1  0.83137400  0.46129100  0.01761500  1
  H  425  1  0.70496400  0.41437400  0.08946200  1
  H  426  1  0.83812200  0.59737500  0.12189500  1
  H  435  1  0.74668100  0.38154500  0.03532900  1
  H  436  1  0.80972000  0.62696200  0.17484700  1
  H  443  1  0.43766100  0.68405500  0.51603600  1
  H  450  1  0.58160000  0.51770400  0.61274800  1
  H  451  1  0.45498100  0.58946200  0.65963400  1
  H  452  1  0.58804200  0.62187400  0.47658100  1
  H  461  1  0.49670000  0.53519700  0.69238800  1
  H  462  1  0.55947000  0.67473900  0.44691100  1
  H  469  1  0.93834800  0.88946200  0.05788500  1
  H  476  1  0.08214100  0.05583100  0.96110400  1
  H  477  1  0.95494200  0.98427400  0.91435700  1
  H  478  1  0.08749900  0.95226100  0.09772600  1
  H  487  1  0.99671200  0.03856700  0.88159000  1
  H  488  1  0.05929900  0.89927500  0.12734600  1
  H  495  1  0.54641600  0.56606000  0.38980800  1
  H  502  1  0.40126900  0.46154900  0.55125000  1
  H  503  1  0.53516800  0.41919100  0.48055600  1
  H  504  1  0.40523300  0.60563000  0.45794200  1
  H  513  1  0.49411800  0.38386700  0.53214200  1
  H  514  1  0.43578800  0.63905900  0.40758900  1
  H  521  1  0.04666000  0.00788300  0.18425600  1
  H  528  1  0.90246200  0.11252000  0.02266700  1
  H  529  1  0.03586600  0.15481900  0.09366700  1
  H  530  1  0.90523200  0.96853300  0.11613900  1
  H  539  1  0.99508800  0.19018700  0.04194600  1
  H  540  1  0.93557500  0.93506800  0.16650600  1
  H  547  1  0.29709400  0.89022000  0.50775000  1
  H  554  1  0.15127200  0.05146100  0.61228200  1
  H  555  1  0.28491700  0.98069500  0.65474200  1
  H  556  1  0.15434500  0.95760100  0.46853700  1
  H  565  1  0.24399000  0.03238700  0.68999000  1
  H  566  1  0.18561400  0.90754600  0.43495000  1
  H  573  1  0.79668600  0.68405800  0.06621100  1
  H  580  1  0.65099800  0.52284400  0.96157400  1
  H  581  1  0.78510400  0.59345200  0.91926700  1
  H  582  1  0.65514200  0.61609000  0.10569100  1
  H  591  1  0.74403800  0.54175500  0.88396700  1
  H  592  1  0.68590700  0.66634600  0.13918000  1
  N  19  1  0.40530400  0.39400400  0.54768200  1
  N  20  1  0.22173000  0.35299300  0.60437100  1
  N  21  1  0.52783800  0.21734100  0.59926200  1
  N  22  1  0.33771900  0.18101400  0.54911500  1
  N  41  1  0.90620000  0.18005100  0.02651700  1
  N  42  1  0.72244600  0.22078900  0.96977900  1
  N  43  1  0.02789500  0.35680600  0.97478900  1
  N  44  1  0.83768900  0.39300100  0.02494600  1
  N  63  1  0.65503800  0.52647500  0.89401500  1
  N  64  1  0.47153900  0.46976000  0.85296000  1
  N  65  1  0.77772000  0.47457400  0.71739200  1
  N  66  1  0.58787400  0.52504400  0.68106300  1
  N  85  1  0.15511000  0.04781800  0.67985100  1
  N  86  1  0.97123700  0.10414300  0.72094800  1
  N  87  1  0.27729300  0.09975900  0.85655700  1
  N  88  1  0.08793100  0.04873800  0.89279500  1
  N  107  1  0.98190000  0.87288200  0.12623600  1
  N  108  1  0.75039200  0.87088200  0.11529300  1
  N  109  1  0.99058200  0.69096700  0.12003900  1
  N  110  1  0.76334000  0.69278200  0.13816700  1
  N  129  1  0.48200200  0.70107300  0.44796200  1
  N  130  1  0.25040500  0.70299400  0.45856800  1
  N  131  1  0.49040000  0.88300800  0.45387100  1
  N  132  1  0.26308300  0.88114900  0.43594000  1
  N  151  1  0.23205200  0.94792800  0.37295100  1
  N  152  1  0.00048900  0.95885800  0.37102200  1
  N  153  1  0.24033100  0.95386900  0.19100000  1
  N  154  1  0.01301500  0.93596500  0.19295400  1
  N  173  1  0.73222500  0.62596100  0.20115400  1
  N  174  1  0.50061600  0.61531800  0.20305000  1
  N  175  1  0.74043000  0.61982800  0.38314300  1
  N  176  1  0.51324800  0.63805500  0.38117200  1
  N  179  1  0.71574200  0.20142800  0.66185800  1
  N  189  1  0.80461400  0.12471100  0.65008200  1
  N  193  1  0.75127200  0.17342200  0.72780000  1
  N  194  1  0.68499000  0.11760100  0.61744500  1
  N  205  1  0.21580400  0.37265700  0.91209700  1
  N  215  1  0.30442400  0.44949200  0.92365100  1
  N  219  1  0.25166600  0.40035900  0.84608100  1
  N  220  1  0.18466100  0.45665400  0.95610500  1
  N  231  1  0.96575800  0.41195000  0.70157100  1
  N  241  1  0.05467200  0.42377300  0.62488700  1
  N  245  1  0.00170900  0.34601300  0.67365000  1
  N  246  1  0.93484200  0.45615900  0.61765400  1
  N  257  1  0.46561100  0.16239900  0.87248800  1
  N  267  1  0.55437000  0.15015900  0.94914100  1
  N  271  1  0.50285200  0.22818400  0.90035400  1
  N  272  1  0.43396300  0.11844900  0.95646200  1
  N  283  1  0.20792600  0.68664600  0.13850000  1
  N  293  1  0.31621400  0.61830000  0.13038100  1
  N  297  1  0.27821200  0.67776800  0.20284700  1
  N  298  1  0.18111700  0.59264400  0.12704800  1
  N  309  1  0.70786600  0.88739700  0.43552100  1
  N  319  1  0.81599000  0.95581300  0.44361900  1
  N  323  1  0.77821200  0.89625400  0.37119200  1
  N  324  1  0.68080800  0.98139400  0.44684100  1
  N  335  1  0.45769700  0.93541500  0.18662500  1
  N  345  1  0.56592800  0.94351300  0.11824300  1
  N  349  1  0.52802200  0.87109400  0.17778500  1
  N  350  1  0.43082500  0.94684700  0.09262400  1
  N  361  1  0.95760400  0.63833900  0.38742800  1
  N  371  1  0.06602300  0.63029800  0.45575000  1
  N  375  1  0.02792500  0.70266800  0.39618600  1
  N  376  1  0.93102200  0.62689700  0.48145300  1
  N  387  1  0.29776700  0.02278300  0.46671800  1
  N  397  1  0.22689200  0.10800100  0.47710000  1
  N  401  1  0.33467800  0.05064600  0.52783100  1
  N  402  1  0.16407100  0.07173600  0.42709900  1
  N  413  1  0.79806200  0.55102600  0.10744700  1
  N  423  1  0.72684300  0.46595700  0.09695700  1
  N  427  1  0.83421600  0.52337600  0.04605200  1
  N  428  1  0.66322900  0.50253700  0.14649800  1
  N  439  1  0.54805000  0.60745200  0.52295600  1
  N  449  1  0.47690900  0.59698900  0.60804900  1
  N  453  1  0.58433400  0.54610000  0.55064300  1
  N  454  1  0.41324100  0.64650300  0.57146600  1
  N  465  1  0.04795800  0.96640600  0.05115300  1
  N  475  1  0.97712000  0.97668600  0.96589800  1
  N  479  1  0.08503600  0.02741900  0.02317800  1
  N  480  1  0.91431400  0.92671400  0.00221300  1
  N  491  1  0.43974200  0.55679900  0.46761000  1
  N  501  1  0.50893600  0.47026000  0.47357100  1
  N  505  1  0.39421400  0.52383500  0.52392300  1
  N  506  1  0.56435400  0.50656100  0.42145600  1
  N  517  1  0.94011300  0.01728100  0.10642200  1
  N  527  1  0.00970600  0.10372300  0.10050200  1
  N  531  1  0.89527600  0.05019900  0.04990300  1
  N  532  1  0.06513500  0.06727500  0.15251400  1
  N  543  1  0.18923100  0.96750900  0.51724000  1
  N  553  1  0.25880000  0.97371700  0.60365200  1
  N  557  1  0.14428800  0.02411600  0.54999400  1
  N  558  1  0.31526000  0.92208700  0.56710300  1
  N  569  1  0.68966800  0.60640400  0.05686900  1
  N  579  1  0.75889000  0.60042500  0.97033900  1
  N  583  1  0.64404800  0.55012200  0.02388400  1
  N  584  1  0.81455400  0.65242000  0.00670500  1
  O  195  1  0.78711900  0.19617300  0.74113800  1
  O  196  1  0.69806400  0.11377900  0.58569300  1
  O  197  1  0.63313400  0.10205700  0.62391700  1
  O  198  1  0.72341400  0.15710300  0.75185300  1
  O  221  1  0.28763800  0.37755200  0.83293900  1
  O  222  1  0.19765800  0.46062700  0.98785000  1
  O  223  1  0.13276800  0.47212100  0.94953700  1
  O  224  1  0.22395200  0.41653700  0.82188500  1
  O  247  1  0.03758700  0.33276400  0.69643800  1
  O  248  1  0.94777500  0.48792500  0.61378800  1
  O  249  1  0.88303000  0.44959900  0.60210300  1
  O  250  1  0.97403600  0.32189500  0.65733800  1
  O  273  1  0.53894400  0.24120100  0.87753200  1
  O  274  1  0.44647100  0.08663900  0.96038000  1
  O  275  1  0.38222200  0.12523300  0.97198400  1
  O  276  1  0.47570600  0.25247900  0.91666600  1
  O  299  1  0.30589600  0.70680700  0.20500000  1
  O  300  1  0.17636000  0.58007800  0.09691500  1
  O  301  1  0.14156000  0.57741700  0.14657400  1
  O  302  1  0.27224700  0.66536900  0.23298900  1
  O  325  1  0.80597100  0.86723600  0.36908100  1
  O  326  1  0.67593200  0.99399100  0.47695400  1
  O  327  1  0.64127200  0.99657100  0.42726100  1
  O  328  1  0.77224800  0.90861700  0.34103400  1
  O  351  1  0.55574500  0.86896900  0.20681600  1
  O  352  1  0.42605900  0.97698100  0.08005900  1
  O  353  1  0.39126000  0.92732100  0.07740200  1
  O  354  1  0.52205200  0.84093900  0.16541500  1
  O  377  1  0.05558700  0.70478700  0.36713900  1
  O  378  1  0.92636000  0.59676300  0.49403200  1
  O  379  1  0.89145200  0.64640100  0.49669800  1
  O  380  1  0.02194500  0.73282800  0.40854300  1
  O  403  1  0.32199900  0.04227700  0.55871800  1
  O  404  1  0.10848400  0.05891200  0.42845700  1
  O  405  1  0.17159800  0.08621800  0.39798900  1
  O  406  1  0.39401100  0.05657300  0.52570100  1
  O  429  1  0.82146600  0.53169600  0.01516200  1
  O  430  1  0.60784200  0.51559300  0.14493900  1
  O  431  1  0.67015500  0.48798500  0.17561300  1
  O  432  1  0.89356900  0.51749100  0.04814900  1
  O  455  1  0.57156400  0.51520700  0.54233800  1
  O  456  1  0.35783200  0.64492600  0.55844200  1
  O  457  1  0.42018100  0.67562800  0.58599500  1
  O  458  1  0.64369200  0.54819800  0.55650200  1
  O  481  1  0.07232500  0.05830400  0.03153800  1
  O  482  1  0.85869400  0.92813500  0.01498800  1
  O  483  1  0.92184000  0.89756300  0.98782100  1
  O  484  1  0.14436500  0.02529700  0.01724600  1
  O  507  1  0.40611300  0.53225900  0.55489900  1
  O  508  1  0.62165400  0.51694100  0.42286100  1
  O  509  1  0.55320000  0.49509800  0.39136600  1
  O  510  1  0.33544700  0.51653100  0.52152500  1
  O  533  1  0.90728400  0.04180900  0.01893200  1
  O  534  1  0.12234500  0.05674700  0.15112400  1
  O  535  1  0.05408600  0.07881300  0.18258800  1
  O  536  1  0.83650600  0.05751700  0.05224100  1
  O  559  1  0.15617300  0.05509600  0.54158800  1
  O  560  1  0.37239200  0.92376600  0.55649400  1
  O  561  1  0.30479500  0.89196700  0.57867900  1
  O  562  1  0.08550900  0.02171000  0.55726900  1
  O  585  1  0.65589000  0.51913500  0.03229200  1
  O  586  1  0.87183400  0.65092900  0.01710500  1
  O  587  1  0.80355800  0.68253300  0.99525500  1
  O  588  1  0.58528200  0.55255900  0.01658600  1
