# generated using pymatgen
data_H3C3N
_symmetry_space_group_name_H-M   'P 1'
_cell_length_a   8.68360000
_cell_length_b   21.01420000
_cell_length_c   21.01420000
_cell_angle_alpha   90.00000000
_cell_angle_beta   90.00000000
_cell_angle_gamma   90.00000000
_symmetry_Int_Tables_number   1
_chemical_formula_structural   H3C3N
_chemical_formula_sum   'H144 C144 N48'
_cell_volume   3834.64825000
_cell_formula_units_Z   48
loop_
 _symmetry_equiv_pos_site_id
 _symmetry_equiv_pos_as_xyz
  1  'x, y, z'
loop_
 _atom_site_type_symbol
 _atom_site_label
 _atom_site_symmetry_multiplicity
 _atom_site_fract_x
 _atom_site_fract_y
 _atom_site_fract_z
 _atom_site_occupancy
  C  1  1  0.46685900  0.16990600  0.58354200  1
  C  2  1  0.40113500  0.11549500  0.53932200  1
  C  3  1  0.31470700  0.20136400  0.61164900  1
  C  4  1  0.19869500  0.22870300  0.55841800  1
  C  7  1  0.16783500  0.17489600  0.50668600  1
  C  8  1  0.32150300  0.14258000  0.47885300  1
  C  13  1  0.42521600  0.19403200  0.44618900  1
  C  14  1  0.44712000  0.25336400  0.48911500  1
  C  17  1  0.29853900  0.27831200  0.52233800  1
  C  20  1  0.55098700  0.22582800  0.54508400  1
  C  23  1  0.96704000  0.31462200  0.90097200  1
  C  24  1  0.90120400  0.36901400  0.94518800  1
  C  25  1  0.81493800  0.28313800  0.87282500  1
  C  26  1  0.69886900  0.25582800  0.92604100  1
  C  29  1  0.66789100  0.30962400  0.97776800  1
  C  30  1  0.82151600  0.34194900  0.00565400  1
  C  35  1  0.92526000  0.29050900  0.03831700  1
  C  36  1  0.94726900  0.23116900  0.99538500  1
  C  39  1  0.79870100  0.20622400  0.96214000  1
  C  42  1  0.05118600  0.25871700  0.93943700  1
  C  45  1  0.71683600  0.40186300  0.66946200  1
  C  46  1  0.65086100  0.44639500  0.61543200  1
  C  47  1  0.56481300  0.37373000  0.70092600  1
  C  48  1  0.44955900  0.42687000  0.72884600  1
  C  51  1  0.41832000  0.47896200  0.67539200  1
  C  52  1  0.57181300  0.50677200  0.64293800  1
  C  57  1  0.67587200  0.53920000  0.69438600  1
  C  58  1  0.69809800  0.49594200  0.75347200  1
  C  61  1  0.54984300  0.46251700  0.77852900  1
  C  64  1  0.80161300  0.44004500  0.72543200  1
  C  67  1  0.21688000  0.08259100  0.81508300  1
  C  68  1  0.15076800  0.03793100  0.86900400  1
  C  69  1  0.06489500  0.11078800  0.78364200  1
  C  70  1  0.94966500  0.05771300  0.75558000  1
  C  73  1  0.91835200  0.00547800  0.80888000  1
  C  74  1  0.07180000  0.97761600  0.84131800  1
  C  79  1  0.17597400  0.94531400  0.78983800  1
  C  80  1  0.19822400  0.98867000  0.73084000  1
  C  83  1  0.05005100  0.02218000  0.70583600  1
  C  86  1  0.30169600  0.04451500  0.75903200  1
  C  89  1  0.99340100  0.66794900  0.08002800  1
  C  90  1  0.92982400  0.61326700  0.03627200  1
  C  91  1  0.84607300  0.70040800  0.11125900  1
  C  92  1  0.72314600  0.72808200  0.06135300  1
  C  95  1  0.67863600  0.67122800  0.01561900  1
  C  96  1  0.82351900  0.63863300  0.98233900  1
  C  101  1  0.91442600  0.68980400  0.94317500  1
  C  102  1  0.96110100  0.74771900  0.98485800  1
  C  105  1  0.81819100  0.77519600  0.01990200  1
  C  108  1  0.07388500  0.72083200  0.03745200  1
  C  111  1  0.49366000  0.81638200  0.40437500  1
  C  112  1  0.43009800  0.87104800  0.44816900  1
  C  113  1  0.34636400  0.78389000  0.37314800  1
  C  114  1  0.22354300  0.75621300  0.42308100  1
  C  117  1  0.17899400  0.81302700  0.46884100  1
  C  118  1  0.32386500  0.84564300  0.50210200  1
  C  123  1  0.41484100  0.79447300  0.54122800  1
  C  124  1  0.46159300  0.73659000  0.49951500  1
  C  127  1  0.31866900  0.70907400  0.46450100  1
  C  130  1  0.57427700  0.76351300  0.44691300  1
  C  133  1  0.24380600  0.90501500  0.16806500  1
  C  134  1  0.18053700  0.94906400  0.11357100  1
  C  135  1  0.09636800  0.87379400  0.20038400  1
  C  136  1  0.97384800  0.92367800  0.22829400  1
  C  139  1  0.92935000  0.96964800  0.17163200  1
  C  140  1  0.07425300  0.00293300  0.13909800  1
  C  145  1  0.16522900  0.04190500  0.19038700  1
  C  146  1  0.21197600  0.99998200  0.24817000  1
  C  149  1  0.06902900  0.96488200  0.27556600  1
  C  152  1  0.32453200  0.94739200  0.22105700  1
  C  155  1  0.74390900  0.57940000  0.31637200  1
  C  156  1  0.68050200  0.53535000  0.37082700  1
  C  157  1  0.59652700  0.61064500  0.28404200  1
  C  158  1  0.47395100  0.56079000  0.25609400  1
  C  161  1  0.42931700  0.51480500  0.31272900  1
  C  162  1  0.57417500  0.48150600  0.34528100  1
  C  167  1  0.66511700  0.44251200  0.29399900  1
  C  168  1  0.71201900  0.48443500  0.23624000  1
  C  171  1  0.56915200  0.51957800  0.20882500  1
  C  174  1  0.82460200  0.53700000  0.26338900  1
  C  177  1  0.80196100  0.07939900  0.71806800  1
  C  179  1  0.69547400  0.09481300  0.61052100  1
  C  180  1  0.57926300  0.13789000  0.63026000  1
  C  182  1  0.68413900  0.12224700  0.73722600  1
  C  187  1  0.30157000  0.40541300  0.76628200  1
  C  189  1  0.19524000  0.38997000  0.87392900  1
  C  190  1  0.07939300  0.34667500  0.85426400  1
  C  192  1  0.18447400  0.36215200  0.74738600  1
  C  197  1  0.04993300  0.26592500  0.57954400  1
  C  199  1  0.94186300  0.37362400  0.59258100  1
  C  200  1  0.82798500  0.35484300  0.63716000  1
  C  202  1  0.93447400  0.24793900  0.62401200  1
  C  207  1  0.55042900  0.21847200  0.90480300  1
  C  209  1  0.44145200  0.11091300  0.89224000  1
  C  210  1  0.32796400  0.12961900  0.84745400  1
  C  212  1  0.43500300  0.23651600  0.86032600  1
  C  217  1  0.33110500  0.58361000  0.21636900  1
  C  219  1  0.22686300  0.59556400  0.10796600  1
  C  220  1  0.10853700  0.63799300  0.12657800  1
  C  222  1  0.21275600  0.62683400  0.23398900  1
  C  227  1  0.83076000  0.90102000  0.26793100  1
  C  229  1  0.72677200  0.88892400  0.37640400  1
  C  230  1  0.60871100  0.84635700  0.35781600  1
  C  232  1  0.71296300  0.85751600  0.25047500  1
  C  237  1  0.57987700  0.76779600  0.08384800  1
  C  239  1  0.47549400  0.87635100  0.09488000  1
  C  240  1  0.35827200  0.85822500  0.13804000  1
  C  242  1  0.46265400  0.75082600  0.12783500  1
  C  247  1  0.08045000  0.71647800  0.40050200  1
  C  249  1  0.97541500  0.60803700  0.38970900  1
  C  250  1  0.85843600  0.62615800  0.34642900  1
  C  252  1  0.96321800  0.73353800  0.35652200  1
  C  257  1  0.30467900  0.09441200  0.42570700  1
  C  259  1  0.16096000  0.08823600  0.32879800  1
  C  260  1  0.26114900  0.04156400  0.30299500  1
  C  262  1  0.41982600  0.05444900  0.39622700  1
  C  267  1  0.80477000  0.39027000  0.05872200  1
  C  269  1  0.66109700  0.39612900  0.15560900  1
  C  270  1  0.76121800  0.44284000  0.18142100  1
  C  272  1  0.92029800  0.42990500  0.08833200  1
  C  277  1  0.55539400  0.55973800  0.59457800  1
  C  279  1  0.41095700  0.65640000  0.58816000  1
  C  280  1  0.51104400  0.68203200  0.54134400  1
  C  282  1  0.67113900  0.58950400  0.55516400  1
  C  287  1  0.05500800  0.92425700  0.88920900  1
  C  289  1  0.90978300  0.82798800  0.89630900  1
  C  290  1  0.01015900  0.80233000  0.94299800  1
  C  292  1  0.17039000  0.89482200  0.92909200  1
  C  297  1  0.48901400  0.30993900  0.44771200  1
  C  299  1  0.63540400  0.40660600  0.44171100  1
  C  300  1  0.53526100  0.43268400  0.39507200  1
  C  302  1  0.39073700  0.33444200  0.39795000  1
  C  307  1  0.98913800  0.17460200  0.03681100  1
  C  309  1  0.13547300  0.07789100  0.04270100  1
  C  310  1  0.03535100  0.05178500  0.08932700  1
  C  312  1  0.89085100  0.15003800  0.08652400  1
  C  317  1  0.23969200  0.94744800  0.67406800  1
  C  319  1  0.38527800  0.94183600  0.57707000  1
  C  320  1  0.28482600  0.89521000  0.55115600  1
  C  322  1  0.14053800  0.89810600  0.64924800  1
  C  327  1  0.73992300  0.53708000  0.81024800  1
  C  329  1  0.88556800  0.54255800  0.90717300  1
  C  330  1  0.78476700  0.58879000  0.93355000  1
  C  332  1  0.64100100  0.58646400  0.83510800  1
  H  5  1  0.35117900  0.23903100  0.64381800  1
  H  6  1  0.25735700  0.16631600  0.64140500  1
  H  9  1  0.09455400  0.13814000  0.52763600  1
  H  10  1  0.10073400  0.19565000  0.46784300  1
  H  11  1  0.32018000  0.08560900  0.56590800  1
  H  12  1  0.48789700  0.08226100  0.52538400  1
  H  15  1  0.37978500  0.20585300  0.39966900  1
  H  16  1  0.53903900  0.17483300  0.43476100  1
  H  18  1  0.22142900  0.30010300  0.48794700  1
  H  19  1  0.33268400  0.31665400  0.55483500  1
  H  21  1  0.66085600  0.20886400  0.52603000  1
  H  22  1  0.58004700  0.26430900  0.57785800  1
  H  27  1  0.85138800  0.24543100  0.84068400  1
  H  28  1  0.75759900  0.31816700  0.84304500  1
  H  31  1  0.59461600  0.34637500  0.95681100  1
  H  32  1  0.60074300  0.28884800  0.01659000  1
  H  33  1  0.82028100  0.39889700  0.91858000  1
  H  34  1  0.98793100  0.40225800  0.95915200  1
  H  37  1  0.87977500  0.27869900  0.08482500  1
  H  38  1  0.03904900  0.30974000  0.04974800  1
  H  40  1  0.72159200  0.18447200  0.99655600  1
  H  41  1  0.83279800  0.16786300  0.92964600  1
  H  43  1  0.16101600  0.27570500  0.95850800  1
  H  44  1  0.08031500  0.22024200  0.90666800  1
  H  49  1  0.60175500  0.34131900  0.73826600  1
  H  50  1  0.50663200  0.34424300  0.66586000  1
  H  53  1  0.34453400  0.45839500  0.63861200  1
  H  54  1  0.35175500  0.51777600  0.69649000  1
  H  55  1  0.56961300  0.42005100  0.58546200  1
  H  56  1  0.73748300  0.46050500  0.58223000  1
  H  59  1  0.63049900  0.58569000  0.70635600  1
  H  60  1  0.78960500  0.55067800  0.67515200  1
  H  62  1  0.47263900  0.49659100  0.80078800  1
  H  63  1  0.58462900  0.42971400  0.81652500  1
  H  65  1  0.91134000  0.45908700  0.70829800  1
  H  66  1  0.83096900  0.40708300  0.76370600  1
  H  71  1  0.10182400  0.14329000  0.74637200  1
  H  72  1  0.00671000  0.14021000  0.81876200  1
  H  75  1  0.84448900  0.02593700  0.84569400  1
  H  76  1  0.85182300  0.96672400  0.78765800  1
  H  77  1  0.06945000  0.06420000  0.89900700  1
  H  78  1  0.23727500  0.02372200  0.90219600  1
  H  81  1  0.13077500  0.89881200  0.77775100  1
  H  82  1  0.28970700  0.93382200  0.80906600  1
  H  84  1  0.97284500  0.98819400  0.68345300  1
  H  85  1  0.08497900  0.05505000  0.66792500  1
  H  87  1  0.41143000  0.02545400  0.77614200  1
  H  88  1  0.33105000  0.07754800  0.72082800  1
  H  93  1  0.88857300  0.73820000  0.14188700  1
  H  94  1  0.79205700  0.66561700  0.14246700  1
  H  97  1  0.61524000  0.63501900  0.04218600  1
  H  98  1  0.59933500  0.68943000  0.97947600  1
  H  99  1  0.86797100  0.57785500  0.06471800  1
  H  100  1  0.02560900  0.58890200  0.01383900  1
  H  103  1  0.84277100  0.70511900  0.90340900  1
  H  104  1  0.01865800  0.66924600  0.92201000  1
  H  106  1  0.73677900  0.79412100  0.98497300  1
  H  107  1  0.85728300  0.81527800  0.04932000  1
  H  109  1  0.17656300  0.70128400  0.01444500  1
  H  110  1  0.11314100  0.75978700  0.06789300  1
  H  115  1  0.38875600  0.74607400  0.34251300  1
  H  116  1  0.29230800  0.81867600  0.34194700  1
  H  119  1  0.11551400  0.84924100  0.44231700  1
  H  120  1  0.09975100  0.79477300  0.50498000  1
  H  121  1  0.36818700  0.90647200  0.41976000  1
  H  122  1  0.52588600  0.89539600  0.47060700  1
  H  125  1  0.34320900  0.77910700  0.58098800  1
  H  126  1  0.51906000  0.81504000  0.56239600  1
  H  128  1  0.23739000  0.69011200  0.49946600  1
  H  129  1  0.35774300  0.66901000  0.43505500  1
  H  131  1  0.67694900  0.78308600  0.46990600  1
  H  132  1  0.61354800  0.72457800  0.41645300  1
  H  137  1  0.13876500  0.84298600  0.23803100  1
  H  138  1  0.04213500  0.84277400  0.16548100  1
  H  141  1  0.86578100  0.94329000  0.13532800  1
  H  142  1  0.85024000  0.00578200  0.19000000  1
  H  143  1  0.11884400  0.92082600  0.07793800  1
  H  144  1  0.27656700  0.97161000  0.08946800  1
  H  147  1  0.09355300  0.08161700  0.20581800  1
  H  148  1  0.26942700  0.06312500  0.16987100  1
  H  150  1  0.98768800  0.99973400  0.29470700  1
  H  151  1  0.10819000  0.93525000  0.31548300  1
  H  153  1  0.42725500  0.97037000  0.20151700  1
  H  154  1  0.36374400  0.91680700  0.25990200  1
  H  159  1  0.63897400  0.64147200  0.24641700  1
  H  160  1  0.54233400  0.64167000  0.31895300  1
  H  163  1  0.36572500  0.54114200  0.34904000  1
  H  164  1  0.35022400  0.47868600  0.29432700  1
  H  165  1  0.61883400  0.56359100  0.40646800  1
  H  166  1  0.77647600  0.51276600  0.39491500  1
  H  169  1  0.59337000  0.40282900  0.27854000  1
  H  170  1  0.76925500  0.42124900  0.31452700  1
  H  172  1  0.48779200  0.48475400  0.18964800  1
  H  173  1  0.60841200  0.54920600  0.16892400  1
  H  175  1  0.92727800  0.51399600  0.28294700  1
  H  176  1  0.86389400  0.56757600  0.22455400  1
  H  183  1  0.71729600  0.08526100  0.56387600  1
  H  185  1  0.75602300  0.13422800  0.82683700  1
  H  186  1  0.65559100  0.19250300  0.79485800  1
  H  193  1  0.21738800  0.39940300  0.92056900  1
  H  195  1  0.25562100  0.34986900  0.65723200  1
  H  196  1  0.15432700  0.29186600  0.68920600  1
  H  203  1  0.96362100  0.41999800  0.58184500  1
  H  205  1  0.00702100  0.15837400  0.63834800  1
  H  206  1  0.90341500  0.19088600  0.69571600  1
  H  213  1  0.46248100  0.06458700  0.90339400  1
  H  215  1  0.50717500  0.32601300  0.84631400  1
  H  216  1  0.40350900  0.29370200  0.78875300  1
  H  223  1  0.24699600  0.58381000  0.06170800  1
  H  225  1  0.28971300  0.64496000  0.32156600  1
  H  226  1  0.18983900  0.70155500  0.28672700  1
  H  233  1  0.74719600  0.90054900  0.42267100  1
  H  235  1  0.78928300  0.83916600  0.16233400  1
  H  236  1  0.68903500  0.78275700  0.19713400  1
  H  243  1  0.49565700  0.92246300  0.08261300  1
  H  245  1  0.53923700  0.66284800  0.14664300  1
  H  246  1  0.43810200  0.69768800  0.20292000  1
  H  253  1  0.99510500  0.56195400  0.40221000  1
  H  255  1  0.03954200  0.82136400  0.33804800  1
  H  256  1  0.93826300  0.78678800  0.28150500  1
  H  263  1  0.06111800  0.10212300  0.30742700  1
  H  265  1  0.62042100  0.07094400  0.44358600  1
  H  266  1  0.63509300  0.01870800  0.38660600  1
  H  273  1  0.56086300  0.38248200  0.17681500  1
  H  275  1  0.12136800  0.41389300  0.04057400  1
  H  276  1  0.13614300  0.46549000  0.09800700  1
  H  283  1  0.31043700  0.67747400  0.60166800  1
  H  285  1  0.87219800  0.54172500  0.57134300  1
  H  286  1  0.88724900  0.59928600  0.51989900  1
  H  293  1  0.80953600  0.80672600  0.88274200  1
  H  295  1  0.37125200  0.94223000  0.91267000  1
  H  296  1  0.38610800  0.88529500  0.96490600  1
  H  303  1  0.73169500  0.42978200  0.45671700  1
  H  305  1  0.20612600  0.27403500  0.38552600  1
  H  306  1  0.20522700  0.33566800  0.33800700  1
  H  313  1  0.23184100  0.05474400  0.02773000  1
  H  315  1  0.70628700  0.21050500  0.09910100  1
  H  316  1  0.70542400  0.14885200  0.14655500  1
  H  323  1  0.48166700  0.95674200  0.55390200  1
  H  325  1  0.95616900  0.88562100  0.70981100  1
  H  326  1  0.95443200  0.83840500  0.64799600  1
  H  333  1  0.98201200  0.52762000  0.93029100  1
  H  335  1  0.45684400  0.59925200  0.77455300  1
  H  336  1  0.45528500  0.64636400  0.83647300  1
  N  178  1  0.79361100  0.06942100  0.65368700  1
  N  181  1  0.58312200  0.14910400  0.69405500  1
  N  184  1  0.68523300  0.14846300  0.79464400  1
  N  188  1  0.29333400  0.41530500  0.83069600  1
  N  191  1  0.08361600  0.33520300  0.79053000  1
  N  194  1  0.18723900  0.33546300  0.69028600  1
  N  198  1  0.03996900  0.33000200  0.56794000  1
  N  201  1  0.83384600  0.29148600  0.65035200  1
  N  204  1  0.93894300  0.19168500  0.65236400  1
  N  208  1  0.53970700  0.15450700  0.91681900  1
  N  211  1  0.33425100  0.19294600  0.83407500  1
  N  214  1  0.43881100  0.29286500  0.83208100  1
  N  218  1  0.32485500  0.57178800  0.15218400  1
  N  221  1  0.11153000  0.65146000  0.18987200  1
  N  224  1  0.21662800  0.65705600  0.28944800  1
  N  228  1  0.82466900  0.91271000  0.33215300  1
  N  231  1  0.61191300  0.83274700  0.29455500  1
  N  234  1  0.71825000  0.82702000  0.19527900  1
  N  238  1  0.57320600  0.83186700  0.07138200  1
  N  241  1  0.36188900  0.79512000  0.15236400  1
  N  244  1  0.46835600  0.69586800  0.15874600  1
  N  248  1  0.07325000  0.65247400  0.41320200  1
  N  251  1  0.86233900  0.68925400  0.33204200  1
  N  254  1  0.96833100  0.78855600  0.32563200  1
  N  258  1  0.18446100  0.10978400  0.38787200  1
  N  261  1  0.38572700  0.02739200  0.33884900  1
  N  264  1  0.56782900  0.04337600  0.41422500  1
  N  268  1  0.68440600  0.37477700  0.09643100  1
  N  271  1  0.88613000  0.45691000  0.14571300  1
  N  274  1  0.06858800  0.44064700  0.07064800  1
  N  278  1  0.43473900  0.59738700  0.60985200  1
  N  281  1  0.63659700  0.64660000  0.52769600  1
  N  284  1  0.81955700  0.57187100  0.54460800  1
  N  288  1  0.93380800  0.88683900  0.87428100  1
  N  291  1  0.13570600  0.83777700  0.95664900  1
  N  294  1  0.31867000  0.91252000  0.93993000  1
  N  298  1  0.60615400  0.34830400  0.46707600  1
  N  301  1  0.42295900  0.39297300  0.37607500  1
  N  304  1  0.25999700  0.31115600  0.37032300  1
  N  308  1  0.10625400  0.13623200  0.01739800  1
  N  311  1  0.92303900  0.09148500  0.10834300  1
  N  314  1  0.76000600  0.17326100  0.11410100  1
  N  318  1  0.35659200  0.96689200  0.63557600  1
  N  321  1  0.17215100  0.87635600  0.59064000  1
  N  324  1  0.00958300  0.87062600  0.67249800  1
  N  328  1  0.85695000  0.51761000  0.84862400  1
  N  331  1  0.67256700  0.60789000  0.89384400  1
  N  334  1  0.51027200  0.61416000  0.81190200  1
