# generated using pymatgen
data_InH14(C7O2)4
_symmetry_space_group_name_H-M   'P 1'
_cell_length_a   9.89239000
_cell_length_b   10.00338000
_cell_length_c   18.78498845
_cell_angle_alpha   101.83223381
_cell_angle_beta   99.74525649
_cell_angle_gamma   103.85618000
_symmetry_Int_Tables_number   1
_chemical_formula_structural   InH14(C7O2)4
_chemical_formula_sum   'In2 H28 C56 O16'
_cell_volume   1719.19436006
_cell_formula_units_Z   2
loop_
 _symmetry_equiv_pos_site_id
 _symmetry_equiv_pos_as_xyz
  1  'x, y, z'
loop_
 _atom_site_type_symbol
 _atom_site_label
 _atom_site_symmetry_multiplicity
 _atom_site_fract_x
 _atom_site_fract_y
 _atom_site_fract_z
 _atom_site_occupancy
  In  In0  1  0.13735000  0.31591000  0.27804000  1
  In  In1  1  0.86265000  0.68410000  0.72196000  1
  H  H2  1  0.32283000  0.21304000  0.07648000  1
  H  H3  1  0.26185000  0.13450000  0.96719000  1
  H  H4  1  0.19224000  0.06317000  0.83155000  1
  H  H5  1  0.54204000  0.94515000  0.71931000  1
  H  H6  1  0.47427000  0.87338000  0.58409000  1
  H  H7  1  0.75996000  0.21411000  0.06375000  1
  H  H8  1  0.70502000  0.17403000  0.95743000  1
  H  H9  1  0.63509000  0.10061000  0.82236000  1
  H  H10  1  0.17387000  0.10952000  0.72477000  1
  H  H11  1  0.11373000  0.04745000  0.58832000  1
  H  H12  1  0.64562000  0.29365000  0.27447000  1
  H  H13  1  0.21614000  0.12714000  0.48982000  1
  H  H14  1  0.13898000  0.82723000  0.27655000  1
  H  H15  1  0.27511000  0.70987000  0.47843000  1
  H  H16  1  0.24003000  0.78588000  0.93624000  1
  H  H17  1  0.29497000  0.82598000  0.04257000  1
  H  H18  1  0.36491000  0.89939000  0.17763000  1
  H  H19  1  0.82613000  0.89048000  0.27523000  1
  H  H20  1  0.88627000  0.95256000  0.41168000  1
  H  H21  1  0.67717000  0.78697000  0.92352000  1
  H  H22  1  0.73814000  0.86550000  0.03280000  1
  H  H23  1  0.80775000  0.93683000  0.16845000  1
  H  H24  1  0.45796000  0.05485000  0.28068000  1
  H  H25  1  0.52573000  0.12662000  0.41591000  1
  H  H26  1  0.35437000  0.70636000  0.72553000  1
  H  H27  1  0.78385000  0.87286000  0.51018000  1
  H  H28  1  0.86101000  0.17277000  0.72344000  1
  H  H29  1  0.72489000  0.29012000  0.52156000  1
  C  C30  1  0.37123000  0.28568000  0.22430000  1
  C  C31  1  0.47545000  0.25874000  0.17831000  1
  C  C32  1  0.43408000  0.22392000  0.10075000  1
  C  C33  1  0.34461000  0.13028000  0.93590000  1
  C  C34  1  0.30517000  0.09108000  0.85875000  1
  C  C35  1  0.44909000  0.97015000  0.69133000  1
  C  C36  1  0.41026000  0.92812000  0.61438000  1
  C  C37  1  0.86682000  0.26897000  0.20829000  1
  C  C38  1  0.71682000  0.25491000  0.17145000  1
  C  C39  1  0.67653000  0.22275000  0.09386000  1
  C  C40  1  0.59209000  0.14956000  0.93038000  1
  C  C41  1  0.55225000  0.10742000  0.85333000  1
  C  C42  1  0.24192000  0.06118000  0.69441000  1
  C  C43  1  0.20834000  0.02680000  0.61742000  1
  C  C44  1  0.61594000  0.27124000  0.21394000  1
  C  C45  1  0.53333000  0.20300000  0.05630000  1
  C  C46  1  0.49012000  0.16255000  0.97462000  1
  C  C47  1  0.40721000  0.07830000  0.81465000  1
  C  C48  1  0.36614000  0.03694000  0.73359000  1
  C  C49  1  0.29062000  0.95903000  0.57556000  1
  C  C50  1  0.25162000  0.92309000  0.49400000  1
  C  C51  1  0.21242000  0.02241000  0.45750000  1
  C  C52  1  0.17502000  0.99037000  0.37953000  1
  C  C53  1  0.17022000  0.85566000  0.33732000  1
  C  C54  1  0.20547000  0.75438000  0.37306000  1
  C  C55  1  0.24932000  0.78922000  0.45093000  1
  C  C56  1  0.14712000  0.10237000  0.34227000  1
  C  C57  1  0.18743000  0.60724000  0.32702000  1
  C  C58  1  0.13317000  0.73104000  0.79171000  1
  C  C59  1  0.28318000  0.74510000  0.82855000  1
  C  C60  1  0.32347000  0.77726000  0.90614000  1
  C  C61  1  0.40790000  0.85044000  0.06962000  1
  C  C62  1  0.44775000  0.89259000  0.14667000  1
  C  C63  1  0.75808000  0.93882000  0.30559000  1
  C  C64  1  0.79165000  0.97321000  0.38258000  1
  C  C65  1  0.62876000  0.71431000  0.77569000  1
  C  C66  1  0.52455000  0.74126000  0.82169000  1
  C  C67  1  0.56591000  0.77608000  0.89925000  1
  C  C68  1  0.65539000  0.86972000  0.06410000  1
  C  C69  1  0.69483000  0.90891000  0.14124000  1
  C  C70  1  0.55090000  0.02985000  0.30866000  1
  C  C71  1  0.58974000  0.07188000  0.38562000  1
  C  C72  1  0.38405000  0.72875000  0.78605000  1
  C  C73  1  0.46666000  0.79699000  0.94369000  1
  C  C74  1  0.50988000  0.83745000  0.02538000  1
  C  C75  1  0.59279000  0.92170000  0.18534000  1
  C  C76  1  0.63386000  0.96306000  0.26641000  1
  C  C77  1  0.70938000  0.04097000  0.42444000  1
  C  C78  1  0.74838000  0.07691000  0.50599000  1
  C  C79  1  0.78758000  0.97760000  0.54250000  1
  C  C80  1  0.82498000  0.00964000  0.62047000  1
  C  C81  1  0.82977000  0.14434000  0.66268000  1
  C  C82  1  0.79452000  0.24561000  0.62693000  1
  C  C83  1  0.75068000  0.21079000  0.54907000  1
  C  C84  1  0.85288000  0.89763000  0.65773000  1
  C  C85  1  0.81256000  0.39275000  0.67297000  1
  O  O86  1  0.25167000  0.29559000  0.18858000  1
  O  O87  1  0.40047000  0.29710000  0.29338000  1
  O  O88  1  0.95497000  0.25031000  0.16798000  1
  O  O89  1  0.90325000  0.30101000  0.27999000  1
  O  O90  1  0.10788000  0.07186000  0.27073000  1
  O  O91  1  0.16865000  0.22769000  0.38265000  1
  O  O92  1  0.21593000  0.51700000  0.36408000  1
  O  O93  1  0.14296000  0.57554000  0.25701000  1
  O  O94  1  0.04503000  0.74970000  0.83202000  1
  O  O95  1  0.09675000  0.69899000  0.72001000  1
  O  O96  1  0.74833000  0.70441000  0.81141000  1
  O  O97  1  0.59953000  0.70291000  0.70662000  1
  O  O98  1  0.89211000  0.92814000  0.72926000  1
  O  O99  1  0.83135000  0.77232000  0.61735000  1
  O  O100  1  0.78407000  0.48300000  0.63592000  1
  O  O101  1  0.85704000  0.42446000  0.74298000  1
