# generated using pymatgen
data_H11C14(NO)2
_symmetry_space_group_name_H-M   'P 1'
_cell_length_a   9.99873333
_cell_length_b   44.94917078
_cell_length_c   44.94740000
_cell_angle_alpha   119.99409084
_cell_angle_beta   90.00000000
_cell_angle_gamma   90.00000000
_symmetry_Int_Tables_number   1
_chemical_formula_structural   H11C14(NO)2
_chemical_formula_sum   'H66 C84 N12 O12'
_cell_volume   17495.55539077
_cell_formula_units_Z   6
loop_
 _symmetry_equiv_pos_site_id
 _symmetry_equiv_pos_as_xyz
  1  'x, y, z'
loop_
 _atom_site_type_symbol
 _atom_site_label
 _atom_site_symmetry_multiplicity
 _atom_site_fract_x
 _atom_site_fract_y
 _atom_site_fract_z
 _atom_site_occupancy
  C  4  1  0.00760200  0.55518900  0.42394100  1
  C  5  1  0.00919100  0.54188200  0.38800600  1
  C  6  1  0.99484600  0.56357500  0.37403800  1
  C  7  1  0.97927300  0.59942200  0.39569900  1
  C  8  1  0.97458800  0.61276900  0.43159100  1
  C  9  1  0.98871000  0.59098600  0.44549500  1
  C  10  1  0.96677700  0.62141200  0.38251900  1
  C  11  1  0.05228300  0.62156500  0.35949100  1
  C  12  1  0.04258700  0.64396100  0.34679200  1
  C  13  1  0.04359100  0.67994800  0.36903400  1
  C  14  1  0.04276600  0.70270400  0.35591600  1
  C  15  1  0.04367500  0.68896500  0.31992700  1
  C  16  1  0.04274200  0.65309700  0.29717600  1
  C  17  1  0.04353200  0.63084900  0.31092100  1
  C  18  1  0.05242800  0.64039400  0.26207900  1
  C  19  1  0.96690700  0.61737000  0.23890400  1
  C  20  1  0.97938500  0.60419300  0.20373600  1
  C  21  1  0.97467500  0.56830200  0.18119900  1
  C  22  1  0.99497500  0.62585100  0.18954500  1
  C  23  1  0.00927600  0.61188400  0.15388300  1
  C  24  1  0.00764200  0.57594900  0.13126300  1
  C  25  1  0.98872100  0.55439700  0.14551100  1
  C  26  1  0.05247300  0.73779800  0.37830600  1
  C  27  1  0.96696700  0.76097800  0.37845800  1
  C  28  1  0.97943900  0.79614100  0.40045200  1
  C  29  1  0.99499700  0.81032000  0.43630100  1
  C  30  1  0.97472300  0.81868900  0.38710800  1
  C  31  1  0.98875100  0.85437500  0.40889500  1
  C  32  1  0.00765600  0.86860900  0.44469400  1
  C  33  1  0.00928300  0.84597800  0.45799800  1
  C  55  1  0.02439000  0.90609900  0.46906600  1
  C  58  1  0.02441500  0.56282500  0.09376900  1
  C  61  1  0.02441400  0.53081900  0.43706300  1
  C  64  1  0.99191100  0.44464000  0.57600800  1
  C  65  1  0.99027000  0.45794200  0.61194200  1
  C  66  1  0.00456200  0.43624400  0.62590600  1
  C  67  1  0.02016900  0.40039900  0.60424200  1
  C  68  1  0.02488800  0.38705700  0.56835200  1
  C  69  1  0.01084300  0.40884500  0.55445000  1
  C  70  1  0.03264900  0.37840500  0.61741600  1
  C  71  1  0.94714500  0.37824600  0.64044100  1
  C  72  1  0.95686600  0.35585700  0.65315100  1
  C  73  1  0.95605100  0.31986700  0.63090200  1
  C  74  1  0.95694600  0.29711200  0.64401900  1
  C  75  1  0.95603300  0.31085200  0.68000900  1
  C  76  1  0.95686600  0.34672000  0.70276200  1
  C  77  1  0.95595100  0.36897000  0.68902000  1
  C  78  1  0.94719500  0.35941900  0.73785800  1
  C  79  1  0.03276100  0.38242900  0.76103000  1
  C  80  1  0.02024200  0.39561200  0.79619900  1
  C  81  1  0.02495900  0.43150100  0.81873400  1
  C  82  1  0.00463100  0.37395600  0.81039100  1
  C  83  1  0.99031600  0.38792300  0.84605100  1
  C  84  1  0.99194900  0.42385800  0.86867000  1
  C  85  1  0.01087800  0.44540900  0.85442200  1
  C  86  1  0.94720100  0.26202000  0.62162500  1
  C  87  1  0.03267000  0.23883200  0.62147400  1
  C  88  1  0.02018200  0.20367000  0.59947800  1
  C  89  1  0.00460100  0.18949300  0.56363100  1
  C  90  1  0.02489900  0.18112100  0.61282100  1
  C  91  1  0.01083800  0.14543600  0.59103200  1
  C  92  1  0.99191200  0.13120300  0.55523700  1
  C  93  1  0.99029500  0.15383500  0.54193400  1
  C  115  1  0.97515800  0.09371300  0.53086200  1
  C  118  1  0.97516700  0.43698200  0.90616200  1
  C  121  1  0.97517200  0.46901600  0.56289000  1
  C  124  1  0.01713900  0.51263600  0.03566300  1
  C  125  1  0.12526200  0.51370800  0.01581500  1
  C  126  1  0.10603000  0.50108900  0.98030100  1
  C  127  1  0.98247900  0.48716800  0.96427100  1
  C  128  1  0.87436000  0.48609500  0.98412000  1
  C  130  1  0.89360300  0.49870000  0.01963000  1
  C  142  1  0.01714700  0.52288900  0.48725000  1
  C  143  1  0.12526200  0.50196600  0.48617200  1
  C  144  1  0.10601500  0.47905500  0.49877300  1
  C  145  1  0.98247500  0.47695300  0.51270800  1
  C  146  1  0.87436400  0.49787900  0.51378600  1
  C  148  1  0.89360900  0.52078700  0.50118400  1
  C  160  1  0.01710900  0.96421300  0.47699900  1
  C  161  1  0.12522200  0.98405800  0.49792300  1
  C  162  1  0.10598000  0.01956600  0.52082800  1
  C  163  1  0.98244100  0.03559900  0.52292900  1
  C  164  1  0.87432600  0.01575500  0.50200600  1
  C  166  1  0.89356800  0.98024700  0.47910200  1
  H  34  1  0.02130900  0.51608400  0.37160500  1
  H  35  1  0.99630700  0.55293600  0.34789000  1
  H  36  1  0.98509900  0.60171000  0.47158700  1
  H  37  1  0.96245700  0.63858200  0.44800400  1
  H  38  1  0.04751500  0.60479400  0.29460200  1
  H  39  1  0.04754600  0.68968600  0.39509100  1
  H  40  1  0.04768600  0.70528300  0.31018700  1
  H  41  1  0.99647100  0.79480800  0.44693900  1
  H  42  1  0.96245700  0.55189100  0.19060100  1
  H  43  1  0.98505500  0.52830800  0.13015000  1
  H  44  1  0.02141900  0.62828100  0.14448200  1
  H  45  1  0.99646100  0.65200000  0.20504800  1
  H  46  1  0.02139800  0.85537100  0.48379700  1
  H  47  1  0.98508000  0.86974500  0.39817400  1
  H  48  1  0.96251700  0.80929600  0.36129600  1
  H  49  1  0.89325500  0.60822200  0.24696600  1
  H  50  1  0.12692600  0.64931100  0.25402500  1
  H  51  1  0.89319400  0.63863700  0.39169000  1
  H  52  1  0.12674500  0.60458700  0.35056200  1
  H  53  1  0.89333900  0.75292100  0.36124500  1
  H  54  1  0.12693200  0.74584300  0.39528400  1
  H  56  1  0.11768500  0.90977800  0.48320400  1
  H  57  1  0.94180100  0.91408800  0.48747300  1
  H  59  1  0.11772400  0.57327800  0.09009000  1
  H  60  1  0.94184800  0.57323800  0.08577000  1
  H  62  1  0.11773000  0.51669300  0.42660800  1
  H  63  1  0.94185900  0.51240300  0.42665000  1
  H  94  1  0.97812400  0.48373900  0.62834500  1
  H  95  1  0.00307200  0.44687900  0.65205400  1
  H  96  1  0.01452800  0.39812500  0.52836000  1
  H  97  1  0.03712000  0.36124600  0.55193600  1
  H  98  1  0.95194900  0.39502500  0.70533800  1
  H  99  1  0.95197600  0.31013300  0.60484700  1
  H  100  1  0.95201500  0.29453200  0.68974700  1
  H  101  1  0.00313600  0.20500600  0.55299400  1
  H  102  1  0.03717000  0.44791200  0.80932900  1
  H  103  1  0.01453800  0.47150000  0.86978500  1
  H  104  1  0.97817300  0.37152700  0.85545600  1
  H  105  1  0.00316600  0.34780700  0.79488800  1
  H  106  1  0.97817400  0.14444400  0.51613400  1
  H  107  1  0.01449700  0.13006600  0.60175600  1
  H  108  1  0.03709600  0.19051200  0.63863300  1
  H  109  1  0.10633900  0.39160100  0.75297400  1
  H  110  1  0.87271100  0.35049700  0.74591000  1
  H  111  1  0.10630400  0.36119800  0.60826700  1
  H  112  1  0.87265100  0.39521400  0.64936200  1
  H  113  1  0.10630900  0.24688300  0.63868600  1
  H  114  1  0.87274100  0.25397900  0.60464700  1
  H  116  1  0.05773800  0.08572500  0.51245400  1
  H  117  1  0.88185600  0.09004000  0.51673100  1
  H  119  1  0.05771900  0.42656300  0.91416300  1
  H  120  1  0.88184600  0.42653600  0.90984300  1
  H  122  1  0.05774800  0.48742300  0.57330700  1
  H  123  1  0.88186700  0.48314600  0.57334000  1
  H  129  1  0.18407400  0.50168800  0.96586800  1
  H  131  1  0.81553800  0.49812000  0.03406600  1
  H  139  1  0.10762400  0.51427700  0.07639400  1
  H  141  1  0.89199800  0.48553500  0.92354500  1
  H  147  1  0.18407300  0.46403500  0.49818700  1
  H  149  1  0.81554800  0.53580600  0.50176700  1
  H  157  1  0.10764000  0.56197800  0.48561200  1
  H  159  1  0.89197900  0.43786100  0.51433600  1
  H  165  1  0.18402900  0.03399600  0.53585600  1
  H  167  1  0.81552400  0.96581500  0.46407400  1
  H  174  1  0.10761500  0.92349500  0.43791000  1
  H  176  1  0.89193900  0.07631600  0.56202000  1
  N  132  1  0.74934000  0.47309200  0.96815000  1
  N  133  1  0.25026700  0.52672200  0.03178600  1
  N  138  1  0.02550000  0.52480900  0.07139600  1
  N  140  1  0.97411300  0.47499700  0.92853900  1
  N  150  1  0.74934400  0.49491000  0.52678900  1
  N  151  1  0.25027300  0.50492800  0.47316300  1
  N  156  1  0.02550900  0.54645100  0.47507900  1
  N  158  1  0.97410500  0.45338700  0.52487300  1
  N  168  1  0.74931900  0.03172800  0.50496700  1
  N  169  1  0.25023200  0.96808600  0.49496600  1
  N  173  1  0.02548300  0.92848500  0.45343600  1
  N  175  1  0.97406900  0.07132800  0.54649400  1
  O  1  1  0.33989300  0.98094000  0.48526400  1
  O  134  1  0.71399600  0.44772200  0.97086200  1
  O  135  1  0.28558200  0.55209000  0.02906700  1
  O  136  1  0.33992900  0.50416900  0.01894400  1
  O  137  1  0.65970400  0.49565400  0.98100300  1
  O  152  1  0.71400600  0.52298500  0.55216200  1
  O  153  1  0.28558600  0.47685000  0.44778700  1
  O  154  1  0.33993300  0.51462600  0.49571600  1
  O  155  1  0.65970400  0.48520800  0.50422900  1
  O  170  1  0.71400700  0.02902100  0.47688300  1
  O  171  1  0.28553600  0.97079000  0.52304700  1
  O  172  1  0.65965700  0.01887300  0.51466800  1
