# generated using pymatgen
data_GdPH7C8NO8
_symmetry_space_group_name_H-M   'P 1'
_cell_length_a   9.75341000
_cell_length_b   10.45192000
_cell_length_c   15.54957000
_cell_angle_alpha   89.87668000
_cell_angle_beta   98.54184000
_cell_angle_gamma   89.99330000
_symmetry_Int_Tables_number   1
_chemical_formula_structural   GdPH7C8NO8
_chemical_formula_sum   'Gd4 P4 H28 C32 N4 O32'
_cell_volume   1567.56527839
_cell_formula_units_Z   4
loop_
 _symmetry_equiv_pos_site_id
 _symmetry_equiv_pos_as_xyz
  1  'x, y, z'
loop_
 _atom_site_type_symbol
 _atom_site_label
 _atom_site_symmetry_multiplicity
 _atom_site_fract_x
 _atom_site_fract_y
 _atom_site_fract_z
 _atom_site_occupancy
  Gd  Gd0  1  0.76816000  0.10752000  0.60079000  1
  Gd  Gd1  1  0.73155000  0.60723000  0.89898000  1
  Gd  Gd2  1  0.23185000  0.89247000  0.39921000  1
  Gd  Gd3  1  0.26845000  0.39277000  0.10102000  1
  P  P4  1  0.82488000  0.85944000  0.77106000  1
  P  P5  1  0.67607000  0.35911000  0.72992000  1
  P  P6  1  0.17512000  0.14056000  0.22894000  1
  P  P7  1  0.32394000  0.64089000  0.27008000  1
  H  H8  1  0.66869000  0.87726000  0.08064000  1
  H  H9  1  0.59920000  0.11168000  0.07921000  1
  H  H10  1  0.69842000  0.26080000  0.97668000  1
  H  H11  1  0.85534000  0.17039000  0.87864000  1
  H  H12  1  0.99407000  0.83817000  0.89933000  1
  H  H13  1  0.00591000  0.99005000  0.84692000  1
  H  H14  1  0.95123000  0.83080000  0.67033000  1
  H  H15  1  0.83352000  0.37887000  0.42063000  1
  H  H16  1  0.90047000  0.61368000  0.42082000  1
  H  H17  1  0.79930000  0.76266000  0.52224000  1
  H  H18  1  0.64428000  0.67146000  0.62133000  1
  H  H19  1  0.50752000  0.33867000  0.60085000  1
  H  H20  1  0.49498000  0.49007000  0.65350000  1
  H  H21  1  0.54652000  0.33304000  0.82920000  1
  H  H22  1  0.33132000  0.12274000  0.91936000  1
  H  H23  1  0.40080000  0.88832000  0.92079000  1
  H  H24  1  0.30158000  0.73919000  0.02332000  1
  H  H25  1  0.14467000  0.82961000  0.12135000  1
  H  H26  1  0.00594000  0.16183000  0.10067000  1
  H  H27  1  0.99410000  0.00995000  0.15308000  1
  H  H28  1  0.04877000  0.16920000  0.32967000  1
  H  H29  1  0.16648000  0.62113000  0.57937000  1
  H  H30  1  0.09953000  0.38632000  0.57918000  1
  H  H31  1  0.20070000  0.23734000  0.47775000  1
  H  H32  1  0.35572000  0.32854000  0.37867000  1
  H  H33  1  0.49248000  0.66133000  0.39914000  1
  H  H34  1  0.50502000  0.50992000  0.34650000  1
  H  H35  1  0.45348000  0.66696000  0.17080000  1
  C  C36  1  0.70632000  0.94925000  0.03944000  1
  C  C37  1  0.67067000  0.07750000  0.03690000  1
  C  C38  1  0.72466000  0.15980000  0.97943000  1
  C  C39  1  0.81325000  0.10995000  0.92549000  1
  C  C40  1  0.84817000  0.98054000  0.92820000  1
  C  C41  1  0.93477000  0.91970000  0.86860000  1
  C  C42  1  0.45779000  0.03542000  0.53140000  1
  C  C43  1  0.99440000  0.06239000  0.47319000  1
  C  C44  1  0.79488000  0.45056000  0.46146000  1
  C  C45  1  0.82941000  0.57909000  0.46336000  1
  C  C46  1  0.77461000  0.66133000  0.52032000  1
  C  C47  1  0.68690000  0.61110000  0.57481000  1
  C  C48  1  0.65302000  0.48152000  0.57268000  1
  C  C49  1  0.56639000  0.41993000  0.63206000  1
  C  C50  1  0.04207000  0.53679000  0.96896000  1
  C  C51  1  0.50824000  0.56072000  0.02826000  1
  C  C52  1  0.29368000  0.05075000  0.96056000  1
  C  C53  1  0.32933000  0.92249000  0.96310000  1
  C  C54  1  0.27534000  0.84020000  0.02057000  1
  C  C55  1  0.18676000  0.89005000  0.07451000  1
  C  C56  1  0.15183000  0.01946000  0.07180000  1
  C  C57  1  0.06524000  0.08030000  0.13140000  1
  C  C58  1  0.54223000  0.96459000  0.46862000  1
  C  C59  1  0.00560000  0.93762000  0.52682000  1
  C  C60  1  0.20513000  0.54944000  0.53854000  1
  C  C61  1  0.17059000  0.42091000  0.53664000  1
  C  C62  1  0.22540000  0.33867000  0.47967000  1
  C  C63  1  0.31310000  0.38890000  0.42519000  1
  C  C64  1  0.34698000  0.51848000  0.42731000  1
  C  C65  1  0.43362000  0.58007000  0.36794000  1
  C  C66  1  0.95793000  0.46321000  0.03104000  1
  C  C67  1  0.49176000  0.43928000  0.97174000  1
  N  N68  1  0.79300000  0.90198000  0.98568000  1
  N  N69  1  0.70814000  0.40320000  0.51531000  1
  N  N70  1  0.20700000  0.09802000  0.01432000  1
  N  N71  1  0.29186000  0.59680000  0.48469000  1
  O  O72  1  0.76407000  0.97369000  0.71770000  1
  O  O73  1  0.92891000  0.77988000  0.72172000  1
  O  O74  1  0.71762000  0.76876000  0.80020000  1
  O  O75  1  0.82634000  0.77922000  0.99093000  1
  O  O76  1  0.32656000  0.02607000  0.51495000  1
  O  O77  1  0.52578000  0.09686000  0.59334000  1
  O  O78  1  0.93476000  0.15661000  0.50181000  1
  O  O79  1  0.04890000  0.05825000  0.40348000  1
  O  O80  1  0.73621000  0.47351000  0.78305000  1
  O  O81  1  0.57277000  0.27988000  0.77999000  1
  O  O82  1  0.78276000  0.26751000  0.70137000  1
  O  O83  1  0.67404000  0.28059000  0.51054000  1
  O  O84  1  0.17344000  0.53165000  0.98728000  1
  O  O85  1  0.97379000  0.59600000  0.90575000  1
  O  O86  1  0.56811000  0.65584000  0.00064000  1
  O  O87  1  0.45740000  0.55287000  0.09921000  1
  O  O88  1  0.23594000  0.02632000  0.28231000  1
  O  O89  1  0.07109000  0.22012000  0.27828000  1
  O  O90  1  0.28238000  0.23124000  0.19980000  1
  O  O91  1  0.17367000  0.22078000  0.00907000  1
  O  O92  1  0.67343000  0.97393000  0.48505000  1
  O  O93  1  0.47421000  0.90313000  0.40665000  1
  O  O94  1  0.06527000  0.84337000  0.49819000  1
  O  O95  1  0.95112000  0.94174000  0.59650000  1
  O  O96  1  0.26380000  0.52649000  0.21695000  1
  O  O97  1  0.42723000  0.72012000  0.22001000  1
  O  O98  1  0.21724000  0.73249000  0.29863000  1
  O  O99  1  0.32597000  0.71941000  0.48946000  1
  O  O100  1  0.82656000  0.46835000  0.01272000  1
  O  O101  1  0.02621000  0.40399000  0.09426000  1
  O  O102  1  0.43190000  0.34416000  0.99936000  1
  O  O103  1  0.54261000  0.44713000  0.90079000  1
