# generated using pymatgen
data_H13C23N4
_symmetry_space_group_name_H-M   'P 1'
_cell_length_a   9.98166667
_cell_length_b   39.62785000
_cell_length_c   39.62790000
_cell_angle_alpha   120.00012521
_cell_angle_beta   90.00010000
_cell_angle_gamma   90.00000000
_symmetry_Int_Tables_number   1
_chemical_formula_structural   H13C23N4
_chemical_formula_sum   'H78 C138 N24'
_cell_volume   13574.83986779
_cell_formula_units_Z   6
loop_
 _symmetry_equiv_pos_site_id
 _symmetry_equiv_pos_as_xyz
  1  'x, y, z'
loop_
 _atom_site_type_symbol
 _atom_site_label
 _atom_site_symmetry_multiplicity
 _atom_site_fract_x
 _atom_site_fract_y
 _atom_site_fract_z
 _atom_site_occupancy
  C  1  1  0.97955300  0.00982600  0.51169300  1
  C  2  1  0.98026500  0.03008267  0.49032600  1
  C  3  1  0.97898300  0.07142267  0.51052900  1
  C  4  1  0.97996000  0.09188000  0.55159900  1
  C  5  1  0.98013600  0.07251233  0.57316533  1
  C  6  1  0.97940700  0.03119567  0.55329733  1
  C  7  1  0.98032500  0.00828267  0.44918867  1
  C  8  1  0.97935900  0.01058667  0.57382900  1
  C  10  1  0.97963900  0.96818667  0.49146367  1
  C  11  1  0.97947900  0.94681700  0.44985900  1
  C  12  1  0.98039900  0.90550000  0.42999100  1
  C  13  1  0.98033900  0.88613400  0.45155900  1
  C  14  1  0.97946000  0.90658900  0.49262667  1
  C  15  1  0.98053000  0.94793000  0.51283033  1
  C  16  1  0.97926700  0.96742467  0.42932700  1
  C  18  1  0.98059100  0.96972900  0.55396767  1
  C  27  1  0.97935800  0.47829767  0.98075433  1
  C  28  1  0.98025000  0.43667467  0.96050133  1
  C  29  1  0.97904900  0.41552933  0.91916100  1
  C  30  1  0.97997800  0.43614067  0.89870367  1
  C  31  1  0.98003900  0.47707533  0.91806700  1
  C  32  1  0.97913400  0.49852767  0.95938000  1
  C  33  1  0.98040100  0.41734500  0.98230967  1
  C  34  1  0.97891800  0.53966900  0.97997867  1
  C  36  1  0.97935800  0.49971767  0.02239133  1
  C  37  1  0.97929700  0.47948967  0.04376667  1
  C  38  1  0.98018900  0.50094600  0.08508100  1
  C  39  1  0.98000000  0.54188100  0.10444467  1
  C  40  1  0.97887700  0.56248533  0.08398100  1
  C  41  1  0.98007600  0.54134033  0.04264200  1
  C  42  1  0.97928700  0.43834867  0.02316833  1
  C  44  1  0.98003900  0.56067300  0.02083667  1
  C  53  1  0.97951000  0.47878433  0.51225833  1
  C  54  1  0.98038100  0.50015133  0.55388033  1
  C  55  1  0.97934900  0.47994133  0.57501033  1
  C  56  1  0.98008900  0.43887533  0.55440333  1
  C  57  1  0.98009000  0.41730767  0.51346867  1
  C  58  1  0.97931900  0.43717933  0.49202233  1
  C  59  1  0.98046100  0.54129033  0.57322033  1
  C  60  1  0.97911800  0.41665000  0.45088200  1
  C  62  1  0.97948900  0.49901600  0.49084900  1
  C  63  1  0.97927900  0.54062067  0.51108633  1
  C  64  1  0.98004500  0.56049167  0.48964167  1
  C  65  1  0.98010000  0.53892800  0.44870667  1
  C  66  1  0.97928900  0.49786100  0.42809800  1
  C  67  1  0.98032100  0.47765133  0.44922733  1
  C  68  1  0.97919900  0.56115367  0.55222600  1
  C  70  1  0.98035000  0.43651200  0.42988633  1
  C  79  1  0.94411800  0.66378333  0.15693767  1
  C  80  1  0.84566200  0.69371267  0.17384033  1
  C  82  1  0.00287000  0.73753067  0.22187933  1
  C  83  1  0.10620800  0.70931300  0.20523933  1
  C  84  1  0.07526100  0.67266200  0.17279000  1
  C  86  1  0.02667600  0.77310767  0.25661800  1
  C  87  1  0.94109400  0.83251200  0.30938767  1
  C  88  1  0.06434600  0.84114033  0.32971500  1
  C  89  1  0.17181900  0.81494600  0.31117533  1
  C  91  1  0.15441800  0.78066133  0.27479567  1
  C  92  1  0.25814500  0.75302767  0.25723700  1
  C  93  1  0.23417100  0.71760367  0.22276500  1
  C  98  1  0.70446000  0.69007300  0.16092300  1
  C  102  1  0.91024300  0.62510400  0.13170100  1
  C  103  1  0.07860700  0.87130333  0.36798933  1
  C  106  1  0.94470900  0.46936100  0.32673100  1
  C  107  1  0.84613300  0.45646267  0.29684200  1
  C  109  1  0.00336400  0.46055367  0.25296000  1
  C  110  1  0.10683800  0.47200500  0.28112133  1
  C  111  1  0.07594200  0.47618900  0.31776867  1
  C  113  1  0.02708700  0.45978800  0.21741667  1
  C  114  1  0.94124800  0.45343800  0.15815700  1
  C  115  1  0.06453100  0.46512233  0.14952867  1
  C  116  1  0.17219000  0.47258600  0.17562333  1
  C  118  1  0.15486600  0.47037933  0.20984967  1
  C  119  1  0.25874300  0.48030800  0.23741500  1
  C  120  1  0.23487500  0.48115900  0.27279533  1
  C  125  1  0.70476400  0.44738600  0.30056600  1
  C  129  1  0.91101200  0.48299467  0.36544433  1
  C  130  1  0.07867700  0.47347000  0.11952100  1
  C  133  1  0.94487600  0.83365133  0.52103200  1
  C  134  1  0.84621300  0.81672600  0.53398033  1
  C  136  1  0.00330000  0.76871300  0.52987900  1
  C  137  1  0.10686800  0.78541067  0.51844533  1
  C  138  1  0.07608200  0.81786200  0.51423533  1
  C  140  1  0.02693400  0.73395167  0.53068700  1
  C  141  1  0.94097800  0.68105867  0.53704167  1
  C  142  1  0.06434200  0.66077600  0.52548900  1
  C  143  1  0.17198300  0.67938133  0.51797733  1
  C  145  1  0.15473700  0.71580200  0.52015433  1
  C  146  1  0.25869700  0.73341967  0.51023300  1
  C  147  1  0.23488800  0.76792000  0.50932433  1
  C  152  1  0.70490500  0.82958233  0.54311000  1
  C  156  1  0.91117800  0.85883233  0.50751500  1
  C  157  1  0.07846600  0.62242033  0.51714600  1
  C  160  1  0.94464900  0.31415867  0.84621400  1
  C  161  1  0.84604400  0.28427333  0.82932467  1
  C  163  1  0.00315300  0.24037167  0.78131033  1
  C  164  1  0.10665000  0.26853500  0.79795900  1
  C  165  1  0.07580100  0.30521300  0.83038167  1
  C  167  1  0.02682200  0.20478767  0.74656633  1
  C  168  1  0.94096700  0.14544267  0.69377700  1
  C  169  1  0.06424200  0.13674500  0.67345933  1
  C  170  1  0.17180900  0.16291033  0.69198467  1
  C  172  1  0.15457600  0.19718033  0.72838767  1
  C  173  1  0.25845300  0.22475667  0.74595767  1
  C  174  1  0.23466400  0.26016867  0.78045967  1
  C  179  1  0.70477500  0.28799867  0.84220533  1
  C  183  1  0.91103700  0.35287433  0.87135133  1
  C  184  1  0.07843700  0.10660800  0.63517133  1
  C  187  1  0.94487500  0.50844133  0.67638433  1
  C  188  1  0.84622200  0.52142667  0.70626267  1
  C  190  1  0.00337500  0.51742567  0.75021767  1
  C  191  1  0.10692800  0.50595633  0.72207533  1
  C  192  1  0.07613200  0.50170867  0.68539667  1
  C  194  1  0.02700300  0.51825933  0.78579833  1
  C  195  1  0.94099900  0.52468067  0.84506967  1
  C  196  1  0.06428100  0.51305367  0.85375867  1
  C  197  1  0.17201900  0.50557433  0.82768333  1
  C  199  1  0.15478600  0.50771833  0.79342133  1
  C  200  1  0.25873800  0.49776800  0.76587500  1
  C  201  1  0.23493400  0.49682900  0.73045000  1
  C  206  1  0.70488000  0.53051133  0.70251233  1
  C  210  1  0.91117200  0.49483800  0.63767500  1
  C  211  1  0.07834500  0.50479433  0.88383133  1
  C  214  1  0.94438300  0.14438200  0.48218433  1
  C  215  1  0.84585400  0.16123033  0.46911100  1
  C  217  1  0.00289400  0.20928233  0.47327933  1
  C  218  1  0.10630200  0.19269500  0.48489033  1
  C  219  1  0.07547100  0.16026200  0.48912900  1
  C  221  1  0.02658200  0.24399267  0.47237967  1
  C  222  1  0.94083800  0.29665567  0.46559267  1
  C  223  1  0.06403100  0.31701600  0.47727600  1
  C  224  1  0.17156800  0.29855300  0.48500800  1
  C  226  1  0.15427700  0.26220433  0.48298833  1
  C  227  1  0.25806700  0.24470467  0.49311067  1
  C  228  1  0.23421300  0.21025467  0.49411467  1
  C  233  1  0.70469100  0.14827233  0.45981667  1
  C  237  1  0.91051800  0.11915133  0.49563000  1
  C  238  1  0.07813100  0.35524867  0.48523867  1
  H  9  1  0.98301400  0.12177100  0.56620000  1
  H  17  1  0.98346700  0.85624367  0.43695767  1
  H  19  1  0.97874800  0.95291800  0.39951867  1
  H  20  1  0.97989000  0.02192033  0.43304300  1
  H  21  1  0.98026000  0.95609167  0.57011400  1
  H  22  1  0.97881300  0.02509200  0.60363500  1
  H  35  1  0.98310500  0.42085200  0.86881367  1
  H  43  1  0.98303500  0.55717400  0.13433600  1
  H  45  1  0.97885700  0.42305500  0.03768233  1
  H  46  1  0.98010900  0.38756067  0.96867667  1
  H  47  1  0.97959800  0.59045500  0.03446833  1
  H  48  1  0.97834700  0.55496300  0.96546700  1
  H  61  1  0.98316900  0.42427533  0.56969433  1
  H  69  1  0.98310300  0.55353167  0.43341833  1
  H  71  1  0.97868100  0.59096200  0.56752633  1
  H  72  1  0.98010100  0.55743500  0.60300300  1
  H  73  1  0.97990900  0.42036833  0.40010300  1
  H  74  1  0.97849100  0.38684267  0.43557567  1
  H  85  1  0.14731300  0.65137100  0.16237933  1
  H  94  1  0.35041600  0.75783900  0.27011500  1
  H  95  1  0.30953100  0.69743400  0.21133900  1
  H  96  1  0.26192800  0.81966833  0.32526300  1
  H  97  1  0.85924700  0.85004300  0.32129500  1
  H  99  1  0.68388800  0.66255700  0.13443833  1
  H  100  1  0.68091100  0.71355200  0.15505067  1
  H  101  1  0.63825300  0.69244100  0.18392967  1
  H  104  1  0.17036400  0.87994800  0.37884933  1
  H  105  1  0.82991400  0.61467300  0.13836367  1
  H  112  1  0.14806600  0.48707300  0.33903767  1
  H  121  1  0.35100200  0.48838367  0.23260667  1
  H  122  1  0.31025700  0.48989000  0.29295733  1
  H  123  1  0.26227400  0.48198733  0.17093333  1
  H  124  1  0.85926700  0.44795600  0.14070500  1
  H  126  1  0.68422500  0.44839100  0.32807233  1
  H  127  1  0.68068000  0.41808967  0.27707100  1
  H  128  1  0.63892900  0.46815167  0.29829467  1
  H  131  1  0.17045700  0.47589367  0.11102167  1
  H  132  1  0.83054500  0.50003667  0.37587100  1
  H  139  1  0.14830400  0.82830000  0.50342867  1
  H  148  1  0.35101500  0.72056000  0.50223367  1
  H  149  1  0.31041300  0.77938567  0.50067567  1
  H  150  1  0.26214400  0.66531000  0.50867000  1
  H  151  1  0.85900700  0.66911100  0.54255967  1
  H  153  1  0.68443200  0.85609033  0.54211400  1
  H  154  1  0.68092100  0.83539167  0.57241567  1
  H  155  1  0.63893900  0.80656900  0.52236933  1
  H  158  1  0.17024600  0.61150500  0.51474767  1
  H  159  1  0.83062100  0.85222700  0.49050400  1
  H  166  1  0.14803300  0.32645533  0.84080600  1
  H  175  1  0.35071500  0.21991367  0.73306867  1
  H  176  1  0.31006200  0.28033067  0.79185000  1
  H  177  1  0.26197400  0.15812733  0.67791233  1
  H  178  1  0.85902700  0.12795767  0.68186400  1
  H  180  1  0.68432300  0.31551933  0.86869733  1
  H  181  1  0.68088600  0.26452333  0.84805500  1
  H  182  1  0.63874200  0.28569033  0.81919100  1
  H  185  1  0.17015600  0.09788400  0.62432133  1
  H  186  1  0.83039400  0.36328667  0.86479333  1
  H  193  1  0.14829500  0.49080833  0.66413933  1
  H  202  1  0.35100300  0.48973433  0.77072833  1
  H  203  1  0.31041100  0.48812700  0.71031900  1
  H  204  1  0.26210300  0.49620900  0.83242200  1
  H  205  1  0.85897700  0.53017100  0.86250767  1
  H  207  1  0.68438400  0.52946633  0.67498633  1
  H  208  1  0.68083600  0.55982633  0.72597833  1
  H  209  1  0.63898300  0.50977733  0.70481933  1
  H  212  1  0.17015600  0.50259133  0.89245900  1
  H  213  1  0.83054600  0.47785467  0.62726867  1
  H  220  1  0.14756400  0.14988533  0.50003133  1
  H  229  1  0.35030600  0.25760633  0.50116433  1
  H  230  1  0.30962700  0.19886667  0.50288367  1
  H  231  1  0.26162700  0.31267533  0.49434733  1
  H  232  1  0.85895900  0.30853233  0.45994433  1
  H  234  1  0.68418800  0.12179233  0.46086300  1
  H  235  1  0.68116700  0.14237467  0.43045667  1
  H  236  1  0.63840900  0.17126800  0.48043667  1
  H  239  1  0.16992500  0.36595933  0.48709833  1
  H  240  1  0.83006500  0.12579667  0.51268000  1
  N  23  1  0.97823100  0.09558167  0.61162567  1
  N  24  1  0.99058900  0.09234333  0.49275167  1
  N  25  1  0.99111000  0.88567733  0.51041100  1
  N  26  1  0.97836800  0.88243000  0.39153000  1
  N  49  1  0.97800600  0.49246867  0.89500333  1
  N  50  1  0.99083800  0.37683333  0.89823867  1
  N  51  1  0.99036900  0.60118700  0.10489633  1
  N  52  1  0.97818500  0.48553633  0.10813300  1
  N  75  1  0.97816100  0.37885267  0.49809867  1
  N  76  1  0.99100800  0.49773467  0.61370767  1
  N  77  1  0.99083000  0.48006333  0.38939633  1
  N  78  1  0.97800500  0.59895433  0.50505467  1
  N  81  1  0.87943400  0.72854167  0.20527833  1
  N  90  1  0.92644100  0.79934567  0.27453133  1
  N  108  1  0.87983600  0.45306867  0.26200867  1
  N  117  1  0.92670200  0.45162300  0.19125867  1
  N  135  1  0.87982500  0.78528100  0.53737633  1
  N  144  1  0.92648200  0.71596400  0.53883100  1
  N  162  1  0.87969500  0.24942500  0.79789133  1
  N  171  1  0.92644000  0.17860833  0.72863933  1
  N  189  1  0.87987000  0.52488467  0.74112567  1
  N  198  1  0.92653700  0.52643400  0.81193300  1
  N  216  1  0.87951300  0.19265033  0.46567633  1
  N  225  1  0.92628200  0.26184200  0.46399800  1
