# generated using pymatgen
data_H13C14N3O
_symmetry_space_group_name_H-M   'P 1'
_cell_length_a   15.51920000
_cell_length_b   15.51920000
_cell_length_c   16.59920000
_cell_angle_alpha   89.88140000
_cell_angle_beta   92.49830000
_cell_angle_gamma   90.00000000
_symmetry_Int_Tables_number   1
_chemical_formula_structural   H13C14N3O
_chemical_formula_sum   'H52 C56 N12 O4'
_cell_volume   3994.03530086
_cell_formula_units_Z   4
loop_
 _symmetry_equiv_pos_site_id
 _symmetry_equiv_pos_as_xyz
  1  'x, y, z'
loop_
 _atom_site_type_symbol
 _atom_site_label
 _atom_site_symmetry_multiplicity
 _atom_site_fract_x
 _atom_site_fract_y
 _atom_site_fract_z
 _atom_site_occupancy
  C  1  1  0.55562100  0.99316050  0.00520900  1
  C  2  1  0.61904050  0.01074350  0.94802600  1
  C  3  1  0.70865700  0.01056700  0.96853000  1
  C  4  1  0.73769550  0.99803700  0.04946100  1
  C  5  1  0.67733900  0.97835800  0.10763100  1
  C  6  1  0.58928350  0.97412100  0.08448800  1
  C  9  1  0.46351200  0.98591650  0.98375600  1
  C  10  1  0.42806350  0.98669350  0.90314400  1
  C  11  1  0.33916300  0.97340350  0.88431200  1
  C  12  1  0.28290000  0.95642950  0.94693600  1
  C  13  1  0.31415750  0.95695800  0.02790100  1
  C  14  1  0.40230000  0.97479000  0.04414700  1
  C  29  1  0.99552800  0.55531900  0.48112700  1
  C  30  1  0.03968300  0.61086750  0.42904400  1
  C  31  1  0.02977950  0.70121200  0.43156900  1
  C  32  1  0.97373200  0.73691550  0.48733100  1
  C  33  1  0.93610400  0.68405800  0.54545700  1
  C  34  1  0.94591000  0.59366950  0.54112000  1
  C  37  1  0.99899650  0.46385000  0.47012300  1
  C  38  1  0.99231600  0.42866400  0.39135600  1
  C  39  1  0.99563800  0.33911600  0.37741500  1
  C  40  1  0.00583300  0.28284400  0.44413300  1
  C  41  1  0.01033750  0.31563400  0.52359500  1
  C  42  1  0.00516650  0.40558950  0.53590500  1
  C  57  1  0.96998550  0.03464400  0.25857700  1
  C  58  1  0.97236200  0.12543650  0.26182900  1
  C  59  1  0.89682700  0.17547200  0.26316300  1
  C  60  1  0.81703800  0.13194450  0.25740200  1
  C  61  1  0.81127900  0.04074500  0.25592000  1
  C  62  1  0.88890100  0.99090750  0.25886800  1
  C  65  1  0.05133800  0.99152400  0.26569500  1
  C  66  1  0.11683050  0.00049050  0.20835200  1
  C  67  1  0.19665750  0.95601350  0.22303500  1
  C  68  1  0.20526650  0.89689400  0.28803500  1
  C  69  1  0.13950500  0.88606100  0.34277700  1
  C  70  1  0.06680400  0.93986000  0.33496200  1
  C  79  1  0.13872000  0.81292650  0.40065300  1
  C  82  1  0.27220250  0.96891700  0.17199200  1
  C  85  1  0.72334100  0.00063750  0.25374800  1
  C  88  1  0.89971700  0.27130950  0.27063200  1
  C  91  1  0.98001400  0.95481900  0.75089000  1
  C  92  1  0.91798000  0.96557500  0.81002800  1
  C  93  1  0.85428650  0.90309150  0.82280500  1
  C  94  1  0.86109900  0.82327800  0.78333200  1
  C  95  1  0.92622200  0.80645300  0.72848800  1
  C  96  1  0.98487500  0.87409200  0.70954200  1
  C  99  1  0.03811400  0.02534050  0.73833500  1
  C  100  1  0.01068400  0.11002750  0.71420800  1
  C  101  1  0.07415150  0.17469850  0.69979000  1
  C  102  1  0.16233200  0.15476400  0.71645200  1
  C  103  1  0.19003100  0.07399300  0.74686200  1
  C  104  1  0.12673050  0.01013950  0.75631600  1
  C  113  1  0.28399900  0.05892450  0.76554900  1
  C  116  1  0.05254550  0.26195850  0.66461600  1
  C  119  1  0.92693900  0.71923000  0.69010000  1
  C  122  1  0.78050000  0.91749900  0.87561700  1
  H  7  1  0.60175200  0.01956350  0.88870800  1
  H  16  1  0.42117800  0.97942650  0.10298900  1
  H  17  1  0.84780700  0.04823750  0.06787400  1
  H  18  1  0.16569350  0.99028500  0.94015200  1
  H  19  1  0.55087050  0.95045150  0.12741500  1
  H  20  1  0.46660150  0.99503900  0.85563900  1
  H  22  1  0.25379400  0.86781350  0.09184600  1
  H  24  1  0.34087600  0.93520050  0.76746600  1
  H  26  1  0.75652300  0.04964200  0.86346000  1
  H  28  1  0.73884200  0.89043250  0.17849800  1
  H  35  1  0.07827150  0.58537100  0.38668100  1
  H  44  1  0.00636950  0.42840100  0.59369200  1
  H  45  1  0.90431100  0.83173850  0.45443100  1
  H  46  1  0.95129300  0.17352650  0.44181700  1
  H  47  1  0.91376550  0.55598400  0.58055200  1
  H  48  1  0.98264200  0.46855250  0.34261300  1
  H  50  1  0.93687400  0.25407400  0.59651200  1
  H  52  1  0.01067450  0.34674300  0.25581100  1
  H  54  1  0.08256500  0.72237300  0.32260100  1
  H  56  1  0.82629500  0.70472450  0.60293400  1
  H  63  1  0.03105450  0.15564650  0.26509600  1
  H  64  1  0.76177500  0.16801050  0.25708100  1
  H  71  1  0.25931250  0.85928150  0.29464500  1
  H  72  1  0.01973050  0.93360900  0.37595500  1
  H  75  1  0.93683700  0.86741450  0.25531100  1
  H  76  1  0.83559300  0.87222400  0.27815000  1
  H  77  1  0.14581100  0.05713050  0.10069100  1
  H  78  1  0.04667700  0.07432950  0.12626500  1
  H  80  1  0.19934250  0.77681850  0.40254600  1
  H  81  1  0.12984450  0.83851550  0.46107000  1
  H  83  1  0.28546400  0.03806550  0.16930200  1
  H  84  1  0.32984700  0.93856100  0.19980100  1
  H  86  1  0.67253500  0.04932200  0.25606500  1
  H  87  1  0.71806000  0.96238350  0.30861600  1
  H  89  1  0.88087400  0.29824650  0.21150000  1
  H  90  1  0.85087600  0.29192800  0.31220400  1
  H  97  1  0.91644300  0.02223450  0.84137200  1
  H  98  1  0.81610800  0.77675100  0.79394400  1
  H  105  1  0.20824600  0.20074250  0.70731000  1
  H  106  1  0.14557000  0.95016000  0.77562600  1
  H  109  1  0.07961350  0.90894000  0.63306700  1
  H  110  1  0.05364000  0.80706600  0.62735600  1
  H  111  1  0.90457800  0.18754350  0.70755200  1
  H  112  1  0.88039400  0.08515600  0.70509700  1
  H  114  1  0.31739800  0.06433750  0.70903400  1
  H  115  1  0.30793900  0.11131550  0.80454300  1
  H  117  1  0.01647350  0.29856200  0.70819600  1
  H  118  1  0.11117500  0.29889400  0.65449800  1
  H  120  1  0.88989400  0.67225200  0.72373600  1
  H  121  1  0.99309800  0.69472750  0.69303600  1
  H  123  1  0.72098500  0.90115050  0.84110000  1
  H  124  1  0.78819500  0.87142550  0.92547400  1
  N  21  1  0.25708700  0.93388300  0.08924500  1
  N  23  1  0.30522350  0.97381100  0.80361800  1
  N  25  1  0.77101600  0.00614050  0.90880600  1
  N  27  1  0.70106550  0.94382200  0.18398100  1
  N  49  1  0.00150400  0.25538550  0.58668900  1
  N  51  1  0.98606700  0.30585600  0.29783400  1
  N  53  1  0.06643000  0.75545100  0.37345000  1
  N  55  1  0.88948100  0.72464950  0.60611200  1
  N  73  1  0.88625000  0.90291600  0.26185300  1
  N  74  1  0.10263850  0.04944200  0.14047300  1
  N  107  1  0.04458250  0.86220700  0.65250200  1
  N  108  1  0.92493900  0.12875850  0.70406600  1
  O  8  1  0.82342900  0.98978100  0.06907500  1
  O  15  1  0.19850050  0.93764200  0.92927900  1
  O  36  1  0.95814800  0.82328300  0.48697500  1
  O  43  1  0.00914400  0.19614900  0.43200500  1
