# generated using pymatgen
data_CdH11C14(NO2)2
_symmetry_space_group_name_H-M   'P 1'
_cell_length_a   11.58411000
_cell_length_b   11.58659000
_cell_length_c   12.00645000
_cell_angle_alpha   75.43109000
_cell_angle_beta   75.49810000
_cell_angle_gamma   89.88732000
_symmetry_Int_Tables_number   1
_chemical_formula_structural   CdH11C14(NO2)2
_chemical_formula_sum   'Cd4 H44 C56 N8 O16'
_cell_volume   1506.79447910
_cell_formula_units_Z   4
loop_
 _symmetry_equiv_pos_site_id
 _symmetry_equiv_pos_as_xyz
  1  'x, y, z'
loop_
 _atom_site_type_symbol
 _atom_site_label
 _atom_site_symmetry_multiplicity
 _atom_site_fract_x
 _atom_site_fract_y
 _atom_site_fract_z
 _atom_site_occupancy
  Cd  Cd0  1  0.69347000  0.32952000  0.59500000  1
  Cd  Cd1  1  0.67054000  0.30664000  0.90483000  1
  Cd  Cd2  1  0.30654000  0.67048000  0.40500000  1
  Cd  Cd3  1  0.32947000  0.69336000  0.09517000  1
  H  H4  1  0.59619000  0.56755000  0.57697000  1
  H  H5  1  0.71539000  0.55209000  0.63506000  1
  H  H6  1  0.95189000  0.28072000  0.44524000  1
  H  H7  1  0.65732000  0.42321000  0.33980000  1
  H  H8  1  0.07497000  0.32329000  0.23397000  1
  H  H9  1  0.76716000  0.47403000  0.12525000  1
  H  H10  1  0.91922000  0.57095000  0.48877000  1
  H  H11  1  0.71655000  0.76379000  0.17835000  1
  H  H12  1  0.93915000  0.76796000  0.12893000  1
  H  H13  1  0.09335000  0.40852000  0.02541000  1
  H  H14  1  0.96175000  0.37880000  0.98563000  1
  H  H15  1  0.43265000  0.40410000  0.92280000  1
  H  H16  1  0.44797000  0.28485000  0.86486000  1
  H  H17  1  0.71920000  0.04807000  0.05499000  1
  H  H18  1  0.57693000  0.34272000  0.15994000  1
  H  H19  1  0.67654000  0.92495000  0.26636000  1
  H  H20  1  0.52604000  0.23287000  0.37453000  1
  H  H21  1  0.42890000  0.08090000  0.01129000  1
  H  H22  1  0.23641000  0.28341000  0.32148000  1
  H  H23  1  0.23215000  0.06071000  0.37103000  1
  H  H24  1  0.59136000  0.90655000  0.47481000  1
  H  H25  1  0.62121000  0.03814000  0.51449000  1
  H  H26  1  0.40382000  0.43245000  0.42303000  1
  H  H27  1  0.28461000  0.44791000  0.36494000  1
  H  H28  1  0.04811000  0.71928000  0.55476000  1
  H  H29  1  0.34268000  0.57679000  0.66019000  1
  H  H30  1  0.92503000  0.67671000  0.76603000  1
  H  H31  1  0.23284000  0.52596000  0.87475000  1
  H  H32  1  0.08078000  0.42905000  0.51123000  1
  H  H33  1  0.28345000  0.23620000  0.82165000  1
  H  H34  1  0.06085000  0.23204000  0.87107000  1
  H  H35  1  0.90665000  0.59148000  0.97459000  1
  H  H36  1  0.03826000  0.62120000  0.01437000  1
  H  H37  1  0.56736000  0.59590000  0.07720000  1
  H  H38  1  0.55204000  0.71514000  0.13514000  1
  H  H39  1  0.28081000  0.95193000  0.94501000  1
  H  H40  1  0.42308000  0.65728000  0.84006000  1
  H  H41  1  0.32347000  0.07505000  0.73364000  1
  H  H42  1  0.47396000  0.76713000  0.62547000  1
  H  H43  1  0.57110000  0.91910000  0.98871000  1
  H  H44  1  0.76360000  0.71659000  0.67852000  1
  H  H45  1  0.76785000  0.93929000  0.62897000  1
  H  H46  1  0.40864000  0.09345000  0.52518000  1
  H  H47  1  0.37880000  0.96186000  0.48551000  1
  C  C48  1  0.55828000  0.66829000  0.38801000  1
  C  C49  1  0.91479000  0.32238000  0.37107000  1
  C  C50  1  0.75023000  0.40350000  0.31200000  1
  C  C51  1  0.74987000  0.61284000  0.45034000  1
  C  C52  1  0.69141000  0.66791000  0.36178000  1
  C  C53  1  0.98271000  0.34770000  0.25338000  1
  C  C54  1  0.81249000  0.43193000  0.19285000  1
  C  C55  1  0.87515000  0.61656000  0.42142000  1
  C  C56  1  0.76158000  0.72290000  0.24640000  1
  C  C57  1  0.93183000  0.40387000  0.16091000  1
  C  C58  1  0.94305000  0.67193000  0.30646000  1
  C  C59  1  0.88546000  0.72559000  0.21821000  1
  C  C60  1  0.00084000  0.43317000  0.03198000  1
  C  C61  1  0.07758000  0.67165000  0.27597000  1
  C  C62  1  0.33180000  0.44169000  0.11204000  1
  C  C63  1  0.67757000  0.08519000  0.12906000  1
  C  C64  1  0.59658000  0.24979000  0.18786000  1
  C  C65  1  0.38716000  0.25028000  0.04956000  1
  C  C66  1  0.33214000  0.30860000  0.13813000  1
  C  C67  1  0.65222000  0.01724000  0.24680000  1
  C  C68  1  0.56813000  0.18752000  0.30704000  1
  C  C69  1  0.38339000  0.12498000  0.07856000  1
  C  C70  1  0.27717000  0.23835000  0.25351000  1
  C  C71  1  0.59612000  0.06814000  0.33915000  1
  C  C72  1  0.32810000  0.05700000  0.19353000  1
  C  C73  1  0.27447000  0.11448000  0.28175000  1
  C  C74  1  0.56681000  0.99911000  0.46811000  1
  C  C75  1  0.32843000  0.92244000  0.22406000  1
  C  C76  1  0.44172000  0.33170000  0.61199000  1
  C  C77  1  0.08522000  0.67762000  0.62893000  1
  C  C78  1  0.24978000  0.59650000  0.68800000  1
  C  C79  1  0.25013000  0.38716000  0.54966000  1
  C  C80  1  0.30860000  0.33209000  0.63821000  1
  C  C81  1  0.01729000  0.65230000  0.74662000  1
  C  C82  1  0.18751000  0.56807000  0.80714000  1
  C  C83  1  0.12485000  0.38344000  0.57858000  1
  C  C84  1  0.23842000  0.27710000  0.75360000  1
  C  C85  1  0.06817000  0.59613000  0.83909000  1
  C  C86  1  0.05695000  0.32806000  0.69354000  1
  C  C87  1  0.11455000  0.27441000  0.78179000  1
  C  C88  1  0.99917000  0.56683000  0.96802000  1
  C  C89  1  0.92242000  0.32835000  0.72402000  1
  C  C90  1  0.66821000  0.55831000  0.88796000  1
  C  C91  1  0.32244000  0.91481000  0.87094000  1
  C  C92  1  0.40343000  0.75021000  0.81214000  1
  C  C93  1  0.61285000  0.74972000  0.95044000  1
  C  C94  1  0.66787000  0.69140000  0.86187000  1
  C  C95  1  0.34778000  0.98276000  0.75320000  1
  C  C96  1  0.43187000  0.81248000  0.69296000  1
  C  C97  1  0.61661000  0.87501000  0.92144000  1
  C  C98  1  0.72283000  0.76165000  0.74649000  1
  C  C99  1  0.40389000  0.93186000  0.66085000  1
  C  C100  1  0.67190000  0.94300000  0.80647000  1
  C  C101  1  0.72554000  0.88552000  0.71825000  1
  C  C102  1  0.43319000  0.00089000  0.53189000  1
  C  C103  1  0.67157000  0.07756000  0.77594000  1
  N  N104  1  0.79960000  0.34931000  0.40054000  1
  N  N105  1  0.68394000  0.54543000  0.56368000  1
  N  N106  1  0.65071000  0.20041000  0.09943000  1
  N  N107  1  0.45457000  0.31628000  0.93625000  1
  N  N108  1  0.20041000  0.65069000  0.59946000  1
  N  N109  1  0.31606000  0.45457000  0.43632000  1
  N  N110  1  0.34929000  0.79959000  0.90057000  1
  N  N111  1  0.54543000  0.68372000  0.06375000  1
  O  O112  1  0.49606000  0.65107000  0.49523000  1
  O  O113  1  0.50945000  0.68694000  0.30055000  1
  O  O114  1  0.12569000  0.63405000  0.36147000  1
  O  O115  1  0.13145000  0.70854000  0.16553000  1
  O  O116  1  0.34907000  0.50416000  0.00486000  1
  O  O117  1  0.31310000  0.49029000  0.19959000  1
  O  O118  1  0.36597000  0.87434000  0.13865000  1
  O  O119  1  0.29153000  0.86857000  0.33454000  1
  O  O120  1  0.50395000  0.34892000  0.50477000  1
  O  O121  1  0.49055000  0.31306000  0.69945000  1
  O  O122  1  0.87431000  0.36595000  0.63853000  1
  O  O123  1  0.86856000  0.29146000  0.83447000  1
  O  O124  1  0.65093000  0.49584000  0.99514000  1
  O  O125  1  0.68690000  0.50971000  0.80041000  1
  O  O126  1  0.63403000  0.12566000  0.86135000  1
  O  O127  1  0.70848000  0.13143000  0.66546000  1
