# generated using pymatgen
data_H24C49N4
_symmetry_space_group_name_H-M   'P 1'
_cell_length_a   32.61130000
_cell_length_b   32.61130000
_cell_length_c   62.15220000
_cell_angle_alpha   90.00000000
_cell_angle_beta   90.00000000
_cell_angle_gamma   90.00000000
_symmetry_Int_Tables_number   1
_chemical_formula_structural   H24C49N4
_chemical_formula_sum   'H192 C392 N32'
_cell_volume   66098.67126309
_cell_formula_units_Z   8
loop_
 _symmetry_equiv_pos_site_id
 _symmetry_equiv_pos_as_xyz
  1  'x, y, z'
loop_
 _atom_site_type_symbol
 _atom_site_label
 _atom_site_symmetry_multiplicity
 _atom_site_fract_x
 _atom_site_fract_y
 _atom_site_fract_z
 _atom_site_occupancy
  H  25  1  0.96195200  0.35700500  0.10023000  1
  H  26  1  0.95047400  0.28664000  0.10883600  1
  H  27  1  0.95036100  0.21628200  0.11947100  1
  H  28  1  0.96167300  0.14604000  0.12846000  1
  H  29  1  0.09030500  0.16474400  0.12555100  1
  H  30  1  0.09048900  0.33849000  0.10426900  1
  H  31  1  0.07713000  0.21562300  0.07144700  1
  H  32  1  0.20598000  0.21041900  0.06247600  1
  H  33  1  0.21633400  0.23910300  0.09714200  1
  H  34  1  0.07616800  0.28703400  0.15802100  1
  H  35  1  0.21594400  0.26455600  0.13294700  1
  H  36  1  0.20483000  0.29275600  0.16764500  1
  H  62  1  0.54337300  0.13967100  0.60012500  1
  H  63  1  0.55482300  0.21006000  0.60867200  1
  H  64  1  0.55493000  0.28040100  0.61933900  1
  H  65  1  0.54360600  0.35059900  0.62839600  1
  H  66  1  0.41496700  0.33181100  0.62560800  1
  H  67  1  0.41483200  0.15805900  0.60434900  1
  H  68  1  0.42811500  0.28095700  0.57145500  1
  H  69  1  0.29925600  0.28608400  0.56250600  1
  H  70  1  0.28894200  0.25738300  0.59717300  1
  H  71  1  0.42918500  0.20947500  0.65800600  1
  H  72  1  0.28937600  0.23183300  0.63295900  1
  H  73  1  0.30053100  0.20360500  0.66764800  1
  H  99  1  0.64404700  0.45760500  0.35022400  1
  H  100  1  0.71444500  0.44613400  0.35876500  1
  H  101  1  0.78475200  0.44602300  0.36951600  1
  H  102  1  0.85499500  0.45735100  0.37849800  1
  H  103  1  0.83627700  0.58599000  0.37558800  1
  H  104  1  0.66253400  0.58615900  0.35431100  1
  H  105  1  0.78537200  0.57279200  0.32145800  1
  H  106  1  0.79052600  0.70163700  0.31245900  1
  H  107  1  0.76187400  0.71200200  0.34713200  1
  H  108  1  0.71411100  0.57185400  0.40805800  1
  H  109  1  0.73651400  0.71162100  0.38295500  1
  H  110  1  0.70838900  0.70051800  0.41767200  1
  H  136  1  0.86137300  0.03903000  0.85018100  1
  H  137  1  0.79104200  0.05047800  0.85885600  1
  H  138  1  0.72070100  0.05057200  0.86953200  1
  H  139  1  0.65045500  0.03923900  0.87851800  1
  H  140  1  0.66918200  0.91060400  0.87555300  1
  H  141  1  0.84290100  0.91047900  0.85420700  1
  H  142  1  0.72003200  0.92386700  0.82145000  1
  H  143  1  0.71482000  0.79503100  0.81243000  1
  H  144  1  0.74350900  0.78462700  0.84709300  1
  H  145  1  0.79148900  0.92472800  0.90800700  1
  H  146  1  0.76898800  0.78497600  0.88290100  1
  H  147  1  0.79721400  0.79605500  0.91759800  1
  H  173  1  0.46491500  0.85204200  0.60716800  1
  H  174  1  0.45385200  0.78060300  0.61324500  1
  H  175  1  0.45429300  0.70882800  0.62075700  1
  H  176  1  0.46614500  0.63734900  0.62631800  1
  H  177  1  0.59458200  0.65711000  0.62321100  1
  H  178  1  0.59361300  0.83301800  0.60786900  1
  H  179  1  0.57909700  0.71081200  0.57237300  1
  H  180  1  0.70754300  0.70426500  0.56227600  1
  H  181  1  0.71930900  0.73211100  0.59707000  1
  H  182  1  0.58116000  0.78021100  0.65921300  1
  H  183  1  0.72014900  0.75748900  0.63302500  1
  H  184  1  0.71002700  0.78589900  0.66783300  1
  H  210  1  0.04038100  0.64434400  0.10720700  1
  H  211  1  0.05153400  0.71577300  0.11330500  1
  H  212  1  0.05118700  0.78751800  0.12089700  1
  H  213  1  0.03941600  0.85900600  0.12648400  1
  H  214  1  0.91095700  0.83944500  0.12327600  1
  H  215  1  0.91172400  0.66357400  0.10779300  1
  H  216  1  0.92624600  0.78563500  0.07230500  1
  H  217  1  0.79777900  0.79223100  0.06229000  1
  H  218  1  0.78607100  0.76441000  0.09709500  1
  H  219  1  0.92436300  0.71649700  0.15920200  1
  H  220  1  0.78530400  0.73929600  0.13311600  1
  H  221  1  0.79551500  0.71094100  0.16792800  1
  H  247  1  0.14886900  0.96057200  0.85715100  1
  H  248  1  0.22028000  0.94946800  0.86326800  1
  H  249  1  0.29204400  0.94986700  0.87076400  1
  H  250  1  0.36352400  0.96166000  0.87633300  1
  H  251  1  0.34384400  0.09011900  0.87325000  1
  H  252  1  0.16798400  0.08924700  0.85779600  1
  H  253  1  0.29013400  0.07473500  0.82235100  1
  H  254  1  0.29670100  0.20319400  0.81229700  1
  H  255  1  0.26882900  0.21493300  0.84708700  1
  H  256  1  0.22075500  0.07669000  0.90918600  1
  H  257  1  0.24358100  0.21573200  0.88308600  1
  H  258  1  0.21509200  0.20555200  0.91787100  1
  H  284  1  0.35653900  0.53598600  0.35716500  1
  H  285  1  0.28512800  0.54710200  0.36331000  1
  H  286  1  0.21339700  0.54670300  0.37095400  1
  H  287  1  0.14190100  0.53489700  0.37649000  1
  H  288  1  0.16151500  0.40645400  0.37321800  1
  H  289  1  0.33739500  0.40730400  0.35778000  1
  H  290  1  0.21524500  0.42187200  0.32235400  1
  H  291  1  0.20854100  0.29342000  0.31228800  1
  H  292  1  0.23636200  0.28165400  0.34708700  1
  H  293  1  0.28445600  0.41981500  0.40922900  1
  H  294  1  0.26166300  0.28081400  0.38306300  1
  H  295  1  0.29001400  0.29095000  0.41788200  1
  H  303  1  0.00871500  0.10404400  0.16264900  1
  H  308  1  0.04397100  0.09498100  0.09759100  1
  H  313  1  0.96199500  0.97057100  0.17949500  1
  H  314  1  0.98283100  0.04108500  0.18127300  1
  H  315  1  0.95778100  0.90463700  0.15871800  1
  H  316  1  0.99092900  0.90630200  0.09315500  1
  H  323  1  0.49657000  0.39257900  0.66271400  1
  H  328  1  0.46154500  0.40150800  0.59763600  1
  H  333  1  0.54345900  0.52601700  0.67949800  1
  H  334  1  0.52247500  0.45554800  0.68132000  1
  H  335  1  0.54781000  0.59189000  0.65867500  1
  H  336  1  0.51470500  0.59016300  0.59311800  1
  H  343  1  0.89697400  0.50438000  0.41267700  1
  H  348  1  0.90603900  0.53966600  0.34762400  1
  H  353  1  0.03041100  0.45750700  0.42949100  1
  H  354  1  0.95992200  0.47842300  0.43128800  1
  H  355  1  0.09632300  0.45324200  0.40869800  1
  H  356  1  0.09464000  0.48642600  0.34314200  1
  H  363  1  0.60841200  0.99216800  0.91271000  1
  H  368  1  0.59951300  0.95715000  0.84763100  1
  H  373  1  0.47492400  0.03892900  0.92949600  1
  H  374  1  0.54540900  0.01800700  0.93132000  1
  H  375  1  0.40907300  0.04325600  0.90866200  1
  H  376  1  0.41083900  0.01020000  0.84311800  1
  H  383  1  0.49662200  0.09611500  0.56709400  1
  H  388  1  0.46069000  0.08958400  0.63213700  1
  H  393  1  0.54314600  0.96191200  0.55175500  1
  H  394  1  0.52255200  0.03241200  0.54919600  1
  H  395  1  0.54694200  0.89674700  0.57322200  1
  H  396  1  0.51307400  0.90101000  0.63865000  1
  H  403  1  0.00878000  0.40041300  0.06701400  1
  H  408  1  0.04442800  0.40693200  0.13210500  1
  H  413  1  0.96230400  0.53464600  0.05164400  1
  H  414  1  0.98295000  0.46415800  0.04908800  1
  H  415  1  0.95839500  0.59981000  0.07312800  1
  H  416  1  0.99204900  0.59551400  0.13858500  1
  H  423  1  0.60059500  0.50443500  0.31710100  1
  H  428  1  0.59393200  0.54025100  0.38214600  1
  H  433  1  0.46642100  0.45792400  0.30167100  1
  H  434  1  0.53691800  0.47855500  0.29915000  1
  H  435  1  0.40123500  0.45405100  0.32312500  1
  H  436  1  0.40543600  0.48770500  0.38857400  1
  H  443  1  0.90485200  0.99231800  0.81696100  1
  H  448  1  0.91132200  0.95648400  0.88201200  1
  H  453  1  0.03909800  0.03879000  0.80164200  1
  H  454  1  0.96860300  0.01818000  0.79906000  1
  H  455  1  0.10423200  0.04261700  0.82313800  1
  H  456  1  0.09992500  0.00875600  0.88854600  1
  H  463  1  0.13878200  0.32211200  0.30186400  1
  H  468  1  0.23117200  0.40006100  0.27797400  1
  H  473  1  0.07618900  0.26917900  0.23976100  1
  H  474  1  0.09258700  0.28710700  0.27613000  1
  H  475  1  0.09396700  0.27229200  0.20061100  1
  H  476  1  0.18029700  0.36066600  0.18062100  1
  H  483  1  0.36650800  0.17461600  0.80188200  1
  H  488  1  0.27420200  0.09653700  0.77801500  1
  H  493  1  0.42914900  0.22741700  0.73974700  1
  H  494  1  0.41277100  0.20952300  0.77612700  1
  H  495  1  0.41137600  0.22420800  0.70058700  1
  H  496  1  0.32512600  0.13576400  0.68063600  1
  H  503  1  0.67887200  0.63442100  0.55189200  1
  H  508  1  0.60093600  0.72680000  0.52797700  1
  H  513  1  0.73188700  0.57183800  0.48980300  1
  H  514  1  0.71390600  0.58822500  0.52616700  1
  H  515  1  0.72883300  0.58963300  0.45065200  1
  H  516  1  0.64048000  0.67597400  0.43063800  1
  H  523  1  0.82639700  0.86200200  0.05185700  1
  H  528  1  0.90439800  0.76963500  0.02796700  1
  H  533  1  0.77357500  0.92467300  0.98973500  1
  H  534  1  0.79149500  0.90828600  0.02611000  1
  H  535  1  0.77673400  0.90690300  0.95057300  1
  H  536  1  0.86508000  0.82056800  0.93060100  1
  H  543  1  0.36021600  0.31829500  0.42815400  1
  H  548  1  0.26979900  0.39701300  0.45341900  1
  H  553  1  0.42459800  0.26344900  0.48928900  1
  H  554  1  0.40690800  0.28218900  0.45320200  1
  H  555  1  0.40853000  0.26611000  0.52864900  1
  H  556  1  0.32389400  0.35491400  0.55003700  1
  H  563  1  0.14493400  0.17820700  0.92812400  1
  H  568  1  0.23539800  0.09959000  0.95339400  1
  H  573  1  0.08056100  0.23307200  0.98927200  1
  H  574  1  0.09818700  0.21427100  0.95318000  1
  H  575  1  0.09667200  0.23042600  0.02864700  1
  H  576  1  0.18131600  0.14163900  0.05001700  1
  H  583  1  0.82290800  0.64070100  0.17813700  1
  H  588  1  0.90153400  0.73113900  0.20344300  1
  H  593  1  0.76794500  0.57631500  0.23924200  1
  H  594  1  0.78675200  0.59401200  0.20316400  1
  H  595  1  0.77055200  0.59237100  0.27860500  1
  H  596  1  0.85935200  0.67695800  0.30003800  1
  H  603  1  0.68271400  0.85602200  0.67810200  1
  H  608  1  0.60399900  0.76562700  0.70338000  1
  H  613  1  0.73754800  0.92042900  0.73924500  1
  H  614  1  0.71876600  0.90278200  0.70315500  1
  H  615  1  0.73487700  0.90434600  0.77861900  1
  H  616  1  0.64604900  0.81975900  0.79999900  1
  C  1  1  0.11227900  0.26398700  0.13236400  1
  C  2  1  0.15270200  0.25917000  0.12526600  1
  C  3  1  0.15292700  0.24427500  0.10448900  1
  C  4  1  0.11265500  0.23915500  0.09721500  1
  C  5  1  0.10637700  0.22126600  0.07656500  1
  C  6  1  0.14050000  0.20870300  0.06372400  1
  C  7  1  0.18056900  0.21727000  0.07146500  1
  C  8  1  0.18707600  0.23461400  0.09175600  1
  C  9  1  0.18656900  0.26891000  0.13818500  1
  C  10  1  0.17960700  0.28597000  0.15850100  1
  C  11  1  0.13935800  0.29421200  0.16608900  1
  C  12  1  0.10553900  0.28161600  0.15303300  1
  C  13  1  0.05425800  0.28527800  0.10900700  1
  C  14  1  0.01375300  0.27156800  0.11099200  1
  C  15  1  0.01368200  0.23140600  0.11779600  1
  C  16  1  0.05414300  0.21781100  0.12023200  1
  C  17  1  0.97969400  0.20594100  0.12144300  1
  C  18  1  0.98663900  0.16486500  0.12680100  1
  C  19  1  0.02706000  0.14918700  0.12841600  1
  C  20  1  0.06100200  0.17585800  0.12507800  1
  C  21  1  0.06120400  0.32729400  0.10435200  1
  C  22  1  0.02733600  0.35396900  0.10081000  1
  C  23  1  0.98690000  0.33818000  0.10197400  1
  C  24  1  0.97985000  0.29701300  0.10709900  1
  C  37  1  0.08339800  0.25154800  0.11471000  1
  C  38  1  0.39304500  0.23264900  0.63239600  1
  C  39  1  0.35261100  0.23736200  0.62528900  1
  C  40  1  0.35235600  0.25227900  0.60451600  1
  C  41  1  0.39261800  0.25741500  0.59723200  1
  C  42  1  0.39887400  0.27530200  0.57658000  1
  C  43  1  0.36473500  0.28784000  0.56374400  1
  C  44  1  0.32467600  0.27925900  0.57149400  1
  C  45  1  0.31819300  0.26193800  0.59179300  1
  C  46  1  0.31875800  0.22753900  0.63820300  1
  C  47  1  0.32574300  0.21045000  0.65850900  1
  C  48  1  0.36600500  0.20221300  0.66608100  1
  C  49  1  0.39980300  0.21486000  0.65302500  1
  C  50  1  0.45103700  0.21131400  0.60900500  1
  C  51  1  0.49154100  0.22505300  0.61095000  1
  C  52  1  0.49161200  0.26522700  0.61773100  1
  C  53  1  0.45115000  0.27878700  0.62021600  1
  C  54  1  0.52559400  0.29069800  0.62137600  1
  C  55  1  0.51864200  0.33175300  0.62677600  1
  C  56  1  0.47821100  0.34738900  0.62844500  1
  C  57  1  0.44427500  0.32071700  0.62510600  1
  C  58  1  0.44410700  0.16928200  0.60438300  1
  C  59  1  0.47797800  0.14263200  0.60079800  1
  C  60  1  0.51840900  0.15846000  0.60190600  1
  C  61  1  0.52544700  0.19963100  0.60703100  1
  C  74  1  0.42189700  0.24503600  0.61471900  1
  C  75  1  0.73711600  0.60795800  0.38238900  1
  C  76  1  0.74189600  0.64837900  0.37527900  1
  C  77  1  0.75671600  0.64859700  0.35448600  1
  C  78  1  0.76180300  0.60832300  0.34721100  1
  C  79  1  0.77966800  0.60204000  0.32655500  1
  C  80  1  0.79224100  0.63616000  0.31371400  1
  C  81  1  0.78367300  0.67623200  0.32145000  1
  C  82  1  0.76636900  0.68274200  0.34175000  1
  C  83  1  0.73216000  0.68224800  0.38819700  1
  C  84  1  0.71516000  0.67529300  0.40852600  1
  C  85  1  0.70693000  0.63504700  0.41612100  1
  C  86  1  0.71952300  0.60122400  0.40306700  1
  C  87  1  0.71572700  0.54992300  0.35909100  1
  C  88  1  0.72946500  0.50941500  0.36101400  1
  C  89  1  0.76964700  0.50934800  0.36778100  1
  C  90  1  0.78325900  0.54980900  0.37017200  1
  C  91  1  0.79510800  0.47536600  0.37144300  1
  C  92  1  0.83617300  0.48231700  0.37682000  1
  C  93  1  0.85184300  0.52274200  0.37844400  1
  C  94  1  0.82517400  0.55668400  0.37509500  1
  C  95  1  0.67372300  0.55687100  0.35440400  1
  C  96  1  0.64705200  0.52299300  0.35088100  1
  C  97  1  0.66285300  0.48256000  0.35200100  1
  C  98  1  0.70402000  0.47551300  0.35712500  1
  C  111  1  0.74948900  0.57907200  0.36472400  1
  C  112  1  0.76843000  0.88864000  0.88234600  1
  C  113  1  0.76359700  0.84822400  0.87523700  1
  C  114  1  0.74867600  0.84802500  0.85446600  1
  C  115  1  0.74357600  0.88830800  0.84720300  1
  C  116  1  0.72566900  0.89461000  0.82656000  1
  C  117  1  0.71309600  0.86050800  0.81370800  1
  C  118  1  0.72168200  0.82042700  0.82142700  1
  C  119  1  0.73901700  0.81389300  0.84171800  1
  C  120  1  0.77335100  0.81434600  0.88814600  1
  C  121  1  0.79042800  0.82128600  0.90845900  1
  C  122  1  0.79867400  0.86152900  0.91605600  1
  C  123  1  0.78607100  0.89536100  0.90301100  1
  C  124  1  0.78969200  0.94669000  0.85899800  1
  C  125  1  0.77599800  0.98719400  0.86102900  1
  C  126  1  0.73584000  0.98725300  0.86783900  1
  C  127  1  0.72224000  0.94678500  0.87024500  1
  C  128  1  0.71036100  0.02123300  0.87148500  1
  C  129  1  0.66928600  0.01427700  0.87684100  1
  C  130  1  0.65362300  0.97384900  0.87842900  1
  C  131  1  0.68029500  0.93991000  0.87509700  1
  C  132  1  0.83170800  0.93976300  0.85433500  1
  C  133  1  0.85835300  0.97363800  0.85075100  1
  C  134  1  0.84255700  0.01407100  0.85190900  1
  C  135  1  0.80141500  0.02110500  0.85710300  1
  C  148  1  0.75597400  0.91754100  0.86470500  1
  C  149  1  0.61648900  0.75632000  0.63344200  1
  C  150  1  0.65668600  0.75182800  0.62592700  1
  C  151  1  0.65619600  0.73811800  0.60491200  1
  C  152  1  0.61566100  0.73399100  0.59784400  1
  C  153  1  0.60853100  0.71644500  0.57719100  1
  C  154  1  0.64211800  0.70369500  0.56405100  1
  C  155  1  0.68253000  0.71170100  0.57144900  1
  C  156  1  0.68985000  0.72844700  0.59181200  1
  C  157  1  0.69094100  0.76142300  0.63860500  1
  C  158  1  0.68458500  0.77849100  0.65898600  1
  C  159  1  0.64455300  0.78696600  0.66679700  1
  C  160  1  0.61034400  0.77420100  0.65410700  1
  C  161  1  0.55759500  0.77927600  0.61136400  1
  C  162  1  0.51722600  0.76536300  0.61375500  1
  C  163  1  0.51751400  0.72444800  0.61917400  1
  C  164  1  0.55809200  0.71074700  0.62077600  1
  C  165  1  0.48372200  0.69835300  0.62201700  1
  C  166  1  0.49096500  0.65653000  0.62525200  1
  C  167  1  0.53146900  0.64080500  0.62541300  1
  C  168  1  0.56526400  0.66818500  0.62372400  1
  C  169  1  0.56432900  0.82181300  0.60807200  1
  C  170  1  0.53028800  0.84899700  0.60690100  1
  C  171  1  0.48991600  0.83305200  0.60794300  1
  C  172  1  0.48312400  0.79123500  0.61145100  1
  C  185  1  0.58702300  0.74511000  0.61583500  1
  C  186  1  0.88896500  0.74017000  0.13340200  1
  C  187  1  0.84875200  0.74477500  0.12593600  1
  C  188  1  0.84919600  0.75846700  0.10491700  1
  C  189  1  0.88971900  0.76271700  0.09785300  1
  C  190  1  0.89682400  0.77996900  0.07713000  1
  C  191  1  0.86321000  0.79276800  0.06402100  1
  C  192  1  0.82280700  0.78483200  0.07145900  1
  C  193  1  0.81552100  0.76810200  0.09182900  1
  C  194  1  0.81452700  0.73534600  0.13867000  1
  C  195  1  0.82093300  0.71825700  0.15904200  1
  C  196  1  0.86098400  0.70976600  0.16682800  1
  C  197  1  0.89516800  0.72248900  0.15410800  1
  C  198  1  0.94779700  0.71727000  0.11129300  1
  C  199  1  0.98818500  0.73111100  0.11372600  1
  C  200  1  0.98795200  0.77200500  0.11919500  1
  C  201  1  0.94739500  0.78578900  0.12070500  1
  C  202  1  0.02176800  0.79803900  0.12211200  1
  C  203  1  0.01457400  0.83987400  0.12533800  1
  C  204  1  0.97409500  0.85566300  0.12549100  1
  C  205  1  0.94026600  0.82833500  0.12373700  1
  C  206  1  0.94101700  0.67474800  0.10796300  1
  C  207  1  0.97502100  0.64749900  0.10689500  1
  C  208  1  0.01541500  0.66338600  0.10794000  1
  C  209  1  0.02225900  0.70518800  0.11145300  1
  C  222  1  0.91840800  0.75145700  0.11579700  1
  C  223  1  0.24450700  0.11207500  0.88340900  1
  C  224  1  0.24914300  0.15228100  0.87593700  1
  C  225  1  0.26291000  0.15181200  0.85493200  1
  C  226  1  0.26713800  0.11128200  0.84787500  1
  C  227  1  0.28453800  0.10416700  0.82718700  1
  C  228  1  0.29727900  0.13776600  0.81405200  1
  C  229  1  0.28930300  0.17817200  0.82147100  1
  C  230  1  0.27256300  0.18547700  0.84183900  1
  C  231  1  0.23959500  0.18651400  0.88864000  1
  C  232  1  0.22248500  0.18012400  0.90900900  1
  C  233  1  0.21400000  0.14007700  0.91680100  1
  C  234  1  0.22679900  0.10588400  0.90411000  1
  C  235  1  0.22170600  0.05321000  0.86129400  1
  C  236  1  0.23557300  0.01283200  0.86372200  1
  C  237  1  0.27646600  0.01309400  0.86919600  1
  C  238  1  0.29019000  0.05366500  0.87080800  1
  C  239  1  0.30253300  0.97928600  0.87205800  1
  C  240  1  0.34436800  0.98649800  0.87527300  1
  C  241  1  0.36011700  0.02698700  0.87542500  1
  C  242  1  0.33276200  0.06080400  0.87374700  1
  C  243  1  0.17918400  0.05996300  0.85794900  1
  C  244  1  0.15196900  0.02593800  0.85684000  1
  C  245  1  0.16788400  0.98555700  0.85789400  1
  C  246  1  0.20970100  0.97873700  0.86137900  1
  C  259  1  0.25586200  0.08261200  0.86582500  1
  C  260  1  0.26076900  0.38447700  0.38341100  1
  C  261  1  0.25614400  0.34427600  0.37592700  1
  C  262  1  0.24247800  0.34476700  0.35490300  1
  C  263  1  0.23839000  0.38530200  0.34782500  1
  C  264  1  0.22088400  0.39243100  0.32716300  1
  C  265  1  0.20806300  0.35885100  0.31403900  1
  C  266  1  0.21598400  0.31843600  0.32145900  1
  C  267  1  0.23274200  0.31111000  0.34181900  1
  C  268  1  0.26560200  0.31002400  0.38863600  1
  C  269  1  0.28269300  0.31638700  0.40901100  1
  C  270  1  0.29116800  0.35642200  0.41682400  1
  C  271  1  0.27845800  0.39063100  0.40411900  1
  C  272  1  0.28370100  0.44336200  0.36135000  1
  C  273  1  0.26983600  0.48373700  0.36379300  1
  C  274  1  0.22892700  0.48347600  0.36922600  1
  C  275  1  0.21516600  0.44290500  0.37072100  1
  C  276  1  0.20288200  0.51728100  0.37214900  1
  C  277  1  0.16104500  0.51006500  0.37534800  1
  C  278  1  0.14527800  0.46957900  0.37547500  1
  C  279  1  0.17262300  0.43575700  0.37375800  1
  C  280  1  0.32622400  0.43659700  0.35802400  1
  C  281  1  0.35343600  0.47061600  0.35687600  1
  C  282  1  0.33752700  0.51100400  0.35794400  1
  C  283  1  0.29573100  0.51782300  0.36149500  1
  C  296  1  0.24951900  0.41394800  0.36581200  1
  C  297  1  0.03051200  0.10611100  0.13058400  1
  C  298  1  0.03514700  0.08203200  0.11184700  1
  C  300  1  0.00695500  0.02300700  0.12927400  1
  C  301  1  0.00299400  0.04509900  0.14885700  1
  C  302  1  0.01456900  0.08682900  0.14919700  1
  C  304  1  0.99320500  0.98201500  0.12803400  1
  C  305  1  0.98502000  0.92087700  0.10739500  1
  C  306  1  0.97043600  0.89890300  0.12547000  1
  C  307  1  0.96611600  0.92027900  0.14510500  1
  C  310  1  0.97694000  0.96219400  0.14654500  1
  C  311  1  0.97365000  0.98426600  0.16600400  1
  C  312  1  0.98601400  0.02555100  0.16706600  1
  C  317  1  0.47477400  0.39044400  0.63067100  1
  C  318  1  0.47016500  0.41451000  0.61191400  1
  C  320  1  0.49849000  0.47352900  0.62929600  1
  C  321  1  0.50236300  0.45149100  0.64889800  1
  C  322  1  0.49068300  0.40979700  0.64926800  1
  C  324  1  0.51232200  0.51449000  0.62802800  1
  C  325  1  0.52062900  0.57557600  0.60735400  1
  C  326  1  0.53520100  0.59757200  0.62543100  1
  C  327  1  0.53944200  0.57622300  0.64507600  1
  C  330  1  0.52859300  0.53432400  0.64653200  1
  C  331  1  0.53181200  0.51230100  0.66601200  1
  C  332  1  0.51934700  0.47105100  0.66710100  1
  C  337  1  0.89491400  0.52619800  0.38061700  1
  C  338  1  0.91898800  0.53082800  0.36187800  1
  C  340  1  0.97798900  0.50255600  0.37929000  1
  C  341  1  0.95590800  0.49861200  0.39887700  1
  C  342  1  0.91418900  0.51023100  0.39922700  1
  C  344  1  0.01896000  0.48875400  0.37803700  1
  C  345  1  0.08006700  0.48051400  0.35738200  1
  C  346  1  0.10204100  0.46590300  0.37544900  1
  C  347  1  0.08067700  0.46158800  0.39509000  1
  C  350  1  0.03877700  0.47245900  0.39654100  1
  C  351  1  0.01671800  0.46918400  0.41600600  1
  C  352  1  0.97544700  0.48159700  0.41707900  1
  C  357  1  0.61057000  0.97038400  0.88066600  1
  C  358  1  0.58650500  0.96575700  0.86190900  1
  C  360  1  0.52746400  0.99402600  0.87929200  1
  C  361  1  0.54949700  0.99790800  0.89889500  1
  C  362  1  0.59120300  0.98627100  0.89926400  1
  C  364  1  0.48649100  0.00782700  0.87802600  1
  C  365  1  0.42541100  0.01612300  0.85735800  1
  C  366  1  0.40333900  0.03068400  0.87541400  1
  C  367  1  0.42473000  0.03489200  0.89505800  1
  C  370  1  0.46663900  0.02407300  0.89652700  1
  C  371  1  0.48865300  0.02729800  0.91600800  1
  C  372  1  0.52991400  0.01486900  0.91709900  1
  C  377  1  0.47457800  0.09946600  0.59908300  1
  C  378  1  0.46963200  0.07609100  0.61804300  1
  C  380  1  0.49780000  0.01634200  0.60129300  1
  C  381  1  0.50204700  0.03768800  0.58150300  1
  C  382  1  0.49060900  0.07943000  0.58070900  1
  C  384  1  0.51139000  0.97535800  0.60298600  1
  C  385  1  0.51912400  0.91499900  0.62426600  1
  C  386  1  0.53377500  0.89224900  0.60646900  1
  C  387  1  0.53846700  0.91290700  0.58664400  1
  C  390  1  0.52779200  0.95479500  0.58473600  1
  C  391  1  0.53138000  0.97613700  0.56506600  1
  C  392  1  0.51915700  0.01741400  0.56354700  1
  C  397  1  0.03076800  0.39712600  0.09900100  1
  C  398  1  0.03572800  0.42046500  0.11797900  1
  C  400  1  0.00750400  0.48019500  0.10121400  1
  C  401  1  0.00334800  0.45886500  0.08141300  1
  C  402  1  0.01483000  0.41713800  0.08060900  1
  C  404  1  0.99387600  0.52116900  0.10290500  1
  C  405  1  0.98602000  0.58150700  0.12420300  1
  C  406  1  0.97144500  0.60424700  0.10637900  1
  C  407  1  0.96685800  0.58362600  0.08654200  1
  C  410  1  0.97752000  0.54173500  0.08464200  1
  C  411  1  0.97401800  0.52040800  0.06496500  1
  C  412  1  0.98628700  0.47914700  0.06344500  1
  C  417  1  0.60391600  0.52645900  0.34908700  1
  C  418  1  0.58047700  0.53133700  0.36803500  1
  C  420  1  0.52076700  0.50318700  0.35125400  1
  C  421  1  0.54214300  0.49899300  0.33147000  1
  C  422  1  0.58388300  0.51044300  0.33070800  1
  C  424  1  0.47979400  0.48956300  0.35292600  1
  C  425  1  0.41942500  0.48171600  0.37418000  1
  C  426  1  0.39667200  0.46706800  0.35637400  1
  C  427  1  0.41738000  0.46248700  0.33655600  1
  C  430  1  0.45926100  0.47319200  0.33465900  1
  C  431  1  0.48062500  0.46966500  0.31499500  1
  C  432  1  0.52190200  0.48191300  0.31349700  1
  C  437  1  0.90150000  0.97022500  0.84891800  1
  C  438  1  0.92485400  0.96523000  0.86789400  1
  C  440  1  0.98460900  0.99346500  0.85116700  1
  C  441  1  0.96329200  0.99768800  0.83136700  1
  C  442  1  0.92156100  0.98622200  0.83055300  1
  C  444  1  0.02558800  0.00706700  0.85287300  1
  C  445  1  0.08592600  0.01483600  0.87416700  1
  C  446  1  0.10872800  0.02946900  0.85637700  1
  C  447  1  0.08806100  0.03410100  0.83654800  1
  C  450  1  0.04616800  0.02346700  0.83462700  1
  C  451  1  0.02485100  0.02704100  0.81495100  1
  C  452  1  0.98358500  0.01479400  0.81341600  1
  C  457  1  0.18721400  0.36262900  0.29383400  1
  C  458  1  0.20515100  0.38296500  0.27609500  1
  C  460  1  0.15892100  0.35079200  0.25108200  1
  C  461  1  0.13842500  0.33090100  0.26830800  1
  C  462  1  0.15226200  0.33799600  0.28951800  1
  C  464  1  0.14828300  0.34087000  0.22959100  1
  C  465  1  0.16246000  0.34692300  0.19206400  1
  C  466  1  0.13599100  0.31391600  0.18666800  1
  C  467  1  0.11263300  0.29687800  0.20364000  1
  C  470  1  0.11845700  0.31010100  0.22517500  1
  C  471  1  0.09751000  0.29159600  0.24251000  1
  C  472  1  0.10702200  0.30227800  0.26386700  1
  C  477  1  0.31814100  0.13404400  0.79384700  1
  C  478  1  0.30029400  0.11352000  0.77614000  1
  C  480  1  0.34642000  0.14581700  0.75110600  1
  C  481  1  0.36690600  0.16574100  0.76832400  1
  C  482  1  0.35311400  0.15864700  0.78954100  1
  C  484  1  0.35706000  0.15569800  0.72961100  1
  C  485  1  0.34295200  0.14951700  0.69208000  1
  C  486  1  0.36941800  0.18252300  0.68666000  1
  C  487  1  0.39268300  0.19965500  0.70364200  1
  C  490  1  0.38687800  0.18646500  0.72518100  1
  C  491  1  0.40780300  0.20502700  0.74250700  1
  C  492  1  0.39825800  0.19441200  0.76386900  1
  C  497  1  0.63834600  0.68283700  0.54384700  1
  C  498  1  0.61803400  0.70077800  0.52610200  1
  C  500  1  0.65025000  0.65456100  0.50109900  1
  C  501  1  0.67011700  0.63406200  0.51833100  1
  C  502  1  0.66299400  0.64789200  0.53954000  1
  C  504  1  0.66021000  0.64393300  0.47961300  1
  C  505  1  0.65421200  0.65814000  0.44208600  1
  C  506  1  0.68724600  0.63168600  0.43670600  1
  C  507  1  0.70424700  0.60829800  0.45367500  1
  C  510  1  0.69098700  0.61411200  0.47520500  1
  C  511  1  0.70946600  0.59315900  0.49254600  1
  C  512  1  0.69875200  0.60266200  0.51390000  1
  C  517  1  0.86691100  0.81359200  0.04380100  1
  C  518  1  0.88742800  0.79573900  0.02609600  1
  C  520  1  0.85512400  0.84188300  0.00107200  1
  C  521  1  0.83523200  0.86238500  0.01829500  1
  C  522  1  0.84234000  0.84858900  0.03951100  1
  C  524  1  0.84522500  0.85252300  0.97957900  1
  C  525  1  0.85134900  0.83840200  0.94204700  1
  C  526  1  0.81836300  0.86489900  0.93663600  1
  C  527  1  0.80127100  0.88818300  0.95362400  1
  C  530  1  0.81447500  0.88236600  0.97515800  1
  C  531  1  0.79595100  0.90330900  0.99248800  1
  C  532  1  0.80658200  0.89375700  0.01384800  1
  C  537  1  0.31256600  0.35920100  0.43692600  1
  C  538  1  0.29560700  0.37947300  0.45494300  1
  C  540  1  0.34235100  0.34618400  0.47929600  1
  C  541  1  0.36191100  0.32636500  0.46175000  1
  C  542  1  0.34735800  0.33404400  0.44073000  1
  C  544  1  0.35374500  0.33575200  0.50061500  1
  C  545  1  0.34117300  0.34127100  0.53832700  1
  C  546  1  0.36757200  0.30795100  0.54326200  1
  C  547  1  0.39001500  0.29094600  0.52594600  1
  C  550  1  0.38341300  0.30459000  0.50454500  1
  C  551  1  0.40341800  0.28614400  0.48689000  1
  C  552  1  0.39314600  0.29729700  0.46569700  1
  C  557  1  0.19253500  0.13726400  0.93687900  1
  C  558  1  0.20948700  0.11697600  0.95490100  1
  C  560  1  0.16284900  0.15038500  0.97926900  1
  C  561  1  0.14325400  0.17016300  0.96172300  1
  C  562  1  0.15774400  0.16241900  0.94069700  1
  C  564  1  0.15147500  0.16082200  0.00058900  1
  C  565  1  0.16403100  0.15525900  0.03830400  1
  C  566  1  0.13764900  0.18859500  0.04324000  1
  C  567  1  0.11523500  0.20563100  0.02592200  1
  C  570  1  0.12179700  0.19197200  0.00452400  1
  C  571  1  0.10177800  0.21041100  0.98687000  1
  C  572  1  0.11205900  0.19926800  0.96567600  1
  C  577  1  0.86381100  0.68834100  0.18691900  1
  C  578  1  0.88401200  0.70531700  0.20495500  1
  C  580  1  0.85070500  0.65855700  0.22929000  1
  C  581  1  0.83091700  0.63899900  0.21173500  1
  C  582  1  0.83863900  0.65355600  0.19071900  1
  C  584  1  0.84024200  0.64715000  0.25060400  1
  C  585  1  0.84571900  0.65969100  0.28832000  1
  C  586  1  0.81239900  0.63327700  0.29324600  1
  C  587  1  0.79540200  0.61088000  0.27591300  1
  C  590  1  0.80907200  0.61748500  0.25451900  1
  C  591  1  0.79064900  0.59749500  0.23685400  1
  C  592  1  0.80183800  0.60776800  0.21566700  1
  C  597  1  0.64178000  0.80842200  0.68688200  1
  C  598  1  0.62140100  0.79152600  0.70488800  1
  C  600  1  0.65482500  0.83817600  0.72924700  1
  C  601  1  0.67463100  0.85774200  0.71170100  1
  C  602  1  0.66691300  0.84323500  0.69067600  1
  C  604  1  0.66525400  0.84956100  0.75056700  1
  C  605  1  0.65968200  0.83702900  0.78828400  1
  C  606  1  0.69301700  0.86342100  0.79321900  1
  C  607  1  0.71007300  0.88579700  0.77589600  1
  C  610  1  0.69641800  0.87922600  0.75449800  1
  C  611  1  0.71487800  0.89922500  0.73684500  1
  C  612  1  0.70374700  0.88892800  0.71565100  1
  N  299  1  0.02301200  0.04222600  0.11177700  1
  N  309  1  0.99622800  0.96071600  0.10933000  1
  N  319  1  0.48244300  0.45427500  0.61180800  1
  N  329  1  0.50934500  0.53576200  0.60931200  1
  N  339  1  0.95877800  0.51864500  0.36179700  1
  N  349  1  0.04024600  0.49176500  0.35932800  1
  N  359  1  0.54673100  0.97800100  0.86180400  1
  N  369  1  0.46522500  0.00485500  0.85931200  1
  N  379  1  0.48162100  0.03625200  0.61854800  1
  N  389  1  0.50809400  0.95479200  0.62189600  1
  N  399  1  0.02362900  0.46027600  0.11847900  1
  N  409  1  0.99709900  0.54172900  0.12182300  1
  N  419  1  0.54064400  0.51933200  0.36852300  1
  N  429  1  0.45920600  0.49278900  0.37183200  1
  N  439  1  0.96467200  0.97730200  0.86841500  1
  N  449  1  0.04614400  0.00378000  0.87178600  1
  N  459  1  0.19100300  0.37607200  0.25578300  1
  N  469  1  0.16847600  0.35819500  0.21282300  1
  N  479  1  0.31439400  0.12047500  0.75582200  1
  N  489  1  0.33690200  0.13831700  0.71284700  1
  N  499  1  0.62496100  0.68663600  0.50579400  1
  N  509  1  0.64290600  0.66413500  0.46284000  1
  N  519  1  0.88045500  0.80984200  0.00578200  1
  N  529  1  0.86256900  0.83234600  0.96281100  1
  N  539  1  0.31044100  0.37198800  0.47506500  1
  N  549  1  0.33442100  0.35297000  0.51769400  1
  N  559  1  0.19473400  0.12456000  0.97502900  1
  N  569  1  0.17079800  0.14359100  0.01766700  1
  N  579  1  0.87650000  0.69047800  0.22507200  1
  N  589  1  0.85744200  0.66646200  0.26769300  1
  N  599  1  0.62897500  0.80630300  0.72501200  1
  N  609  1  0.64801500  0.83025500  0.76764800  1
