# generated using pymatgen
data_GdH7(C7O3)2
_symmetry_space_group_name_H-M   'P 1'
_cell_length_a   6.40890000
_cell_length_b   17.38965000
_cell_length_c   23.70304000
_cell_angle_alpha   90.00000000
_cell_angle_beta   90.54934000
_cell_angle_gamma   90.00000000
_symmetry_Int_Tables_number   1
_chemical_formula_structural   GdH7(C7O3)2
_chemical_formula_sum   'Gd4 H28 C56 O24'
_cell_volume   2641.54749663
_cell_formula_units_Z   4
loop_
 _symmetry_equiv_pos_site_id
 _symmetry_equiv_pos_as_xyz
  1  'x, y, z'
loop_
 _atom_site_type_symbol
 _atom_site_label
 _atom_site_symmetry_multiplicity
 _atom_site_fract_x
 _atom_site_fract_y
 _atom_site_fract_z
 _atom_site_occupancy
  Gd  Gd0  1  0.26996000  0.05698000  0.02406000  1
  Gd  Gd1  1  0.73004000  0.55698000  0.47594000  1
  Gd  Gd2  1  0.73005000  0.94302000  0.97594000  1
  Gd  Gd3  1  0.26996000  0.44302000  0.52406000  1
  H  H4  1  0.64192000  0.77435000  0.82228000  1
  H  H5  1  0.02375000  0.83113000  0.76154000  1
  H  H6  1  0.96369000  0.90660000  0.84861000  1
  H  H7  1  0.06484000  0.69330000  0.74028000  1
  H  H8  1  0.73570000  0.70223000  0.63738000  1
  H  H9  1  0.67866000  0.79120000  0.71860000  1
  H  H10  1  0.12838000  0.57029000  0.62554000  1
  H  H11  1  0.35809000  0.27435000  0.67771000  1
  H  H12  1  0.97626000  0.33113000  0.73846000  1
  H  H13  1  0.03632000  0.40660000  0.65139000  1
  H  H14  1  0.93517000  0.19331000  0.75971000  1
  H  H15  1  0.26431000  0.20223000  0.86261000  1
  H  H16  1  0.32135000  0.29120000  0.78140000  1
  H  H17  1  0.87163000  0.07029000  0.87445000  1
  H  H18  1  0.35808000  0.22565000  0.17771000  1
  H  H19  1  0.97626000  0.16886000  0.23846000  1
  H  H20  1  0.03631000  0.09340000  0.15139000  1
  H  H21  1  0.93517000  0.30669000  0.25972000  1
  H  H22  1  0.26431000  0.29777000  0.36261000  1
  H  H23  1  0.32135000  0.20879000  0.28140000  1
  H  H24  1  0.87163000  0.42971000  0.37446000  1
  H  H25  1  0.64192000  0.72565000  0.32228000  1
  H  H26  1  0.02374000  0.66886000  0.26154000  1
  H  H27  1  0.96369000  0.59340000  0.34861000  1
  H  H28  1  0.06483000  0.80669000  0.24028000  1
  H  H29  1  0.73569000  0.79777000  0.13739000  1
  H  H30  1  0.67865000  0.70879000  0.21860000  1
  H  H31  1  0.12837000  0.92971000  0.12554000  1
  C  C32  1  0.22982000  0.93461000  0.93173000  1
  C  C33  1  0.27299000  0.88866000  0.88255000  1
  C  C34  1  0.47404000  0.85327000  0.87420000  1
  C  C35  1  0.49635000  0.80549000  0.82624000  1
  C  C36  1  0.33744000  0.79730000  0.78593000  1
  C  C37  1  0.14527000  0.83566000  0.79361000  1
  C  C38  1  0.11373000  0.87901000  0.84146000  1
  C  C39  1  0.36872000  0.74837000  0.73552000  1
  C  C40  1  0.21006000  0.69847000  0.71749000  1
  C  C41  1  0.23803000  0.65052000  0.67053000  1
  C  C42  1  0.43175000  0.65120000  0.64161000  1
  C  C43  1  0.58860000  0.70267000  0.65985000  1
  C  C44  1  0.55778000  0.75094000  0.70567000  1
  C  C45  1  0.46907000  0.59945000  0.59363000  1
  C  C46  1  0.77019000  0.43461000  0.56826000  1
  C  C47  1  0.72702000  0.38866000  0.61744000  1
  C  C48  1  0.52597000  0.35328000  0.62580000  1
  C  C49  1  0.50366000  0.30549000  0.67376000  1
  C  C50  1  0.66257000  0.29730000  0.71407000  1
  C  C51  1  0.85474000  0.33566000  0.70639000  1
  C  C52  1  0.88628000  0.37902000  0.65853000  1
  C  C53  1  0.63129000  0.24837000  0.76447000  1
  C  C54  1  0.78995000  0.19848000  0.78251000  1
  C  C55  1  0.76198000  0.15053000  0.82947000  1
  C  C56  1  0.56826000  0.15120000  0.85838000  1
  C  C57  1  0.41141000  0.20267000  0.84014000  1
  C  C58  1  0.44223000  0.25094000  0.79433000  1
  C  C59  1  0.53094000  0.09945000  0.90637000  1
  C  C60  1  0.77018000  0.06539000  0.06826000  1
  C  C61  1  0.72702000  0.11134000  0.11744000  1
  C  C62  1  0.52597000  0.14672000  0.12580000  1
  C  C63  1  0.50366000  0.19451000  0.17376000  1
  C  C64  1  0.66256000  0.20270000  0.21407000  1
  C  C65  1  0.85473000  0.16434000  0.20639000  1
  C  C66  1  0.88628000  0.12098000  0.15853000  1
  C  C67  1  0.63128000  0.25162000  0.26447000  1
  C  C68  1  0.78995000  0.30152000  0.28251000  1
  C  C69  1  0.76198000  0.34947000  0.32947000  1
  C  C70  1  0.56826000  0.34880000  0.35839000  1
  C  C71  1  0.41141000  0.29733000  0.34014000  1
  C  C72  1  0.44223000  0.24906000  0.29433000  1
  C  C73  1  0.53093000  0.40055000  0.40637000  1
  C  C74  1  0.22982000  0.56538000  0.43173000  1
  C  C75  1  0.27298000  0.61134000  0.38255000  1
  C  C76  1  0.47404000  0.64672000  0.37420000  1
  C  C77  1  0.49634000  0.69450000  0.32624000  1
  C  C78  1  0.33744000  0.70270000  0.28593000  1
  C  C79  1  0.14527000  0.66434000  0.29361000  1
  C  C80  1  0.11372000  0.62098000  0.34146000  1
  C  C81  1  0.36872000  0.75162000  0.23553000  1
  C  C82  1  0.21005000  0.80152000  0.21749000  1
  C  C83  1  0.23803000  0.84947000  0.17053000  1
  C  C84  1  0.43174000  0.84880000  0.14161000  1
  C  C85  1  0.58859000  0.79732000  0.15986000  1
  C  C86  1  0.55777000  0.74906000  0.20567000  1
  C  C87  1  0.46907000  0.90054000  0.09363000  1
  O  O88  1  0.05276000  0.96893000  0.93882000  1
  O  O89  1  0.36631000  0.94311000  0.97179000  1
  O  O90  1  0.62730000  0.60936000  0.56177000  1
  O  O91  1  0.33521000  0.54450000  0.58582000  1
  O  O92  1  0.63440000  0.86305000  0.90852000  1
  O  O93  1  0.07486000  0.60581000  0.65490000  1
  O  O94  1  0.94725000  0.46893000  0.56117000  1
  O  O95  1  0.63370000  0.44312000  0.52820000  1
  O  O96  1  0.37271000  0.10936000  0.93823000  1
  O  O97  1  0.66479000  0.04450000  0.91417000  1
  O  O98  1  0.36561000  0.36306000  0.59147000  1
  O  O99  1  0.92515000  0.10582000  0.84509000  1
  O  O100  1  0.94725000  0.03107000  0.06118000  1
  O  O101  1  0.63370000  0.05688000  0.02820000  1
  O  O102  1  0.37271000  0.39064000  0.43823000  1
  O  O103  1  0.66479000  0.45550000  0.41417000  1
  O  O104  1  0.36560000  0.13694000  0.09147000  1
  O  O105  1  0.92514000  0.39418000  0.34509000  1
  O  O106  1  0.05275000  0.53107000  0.43882000  1
  O  O107  1  0.36630000  0.55688000  0.47180000  1
  O  O108  1  0.62730000  0.89064000  0.06177000  1
  O  O109  1  0.33521000  0.95550000  0.08582000  1
  O  O110  1  0.63440000  0.63694000  0.40853000  1
  O  O111  1  0.07486000  0.89418000  0.15490000  1
