# generated using pymatgen
data_BaP4H26C26S3BrO21
_symmetry_space_group_name_H-M   'P 1'
_cell_length_a   8.40021000
_cell_length_b   12.91464000
_cell_length_c   18.71682000
_cell_angle_alpha   98.93129000
_cell_angle_beta   91.91585000
_cell_angle_gamma   99.54660000
_symmetry_Int_Tables_number   1
_chemical_formula_structural   BaP4H26C26S3BrO21
_chemical_formula_sum   'Ba2 P8 H52 C52 S6 Br2 O42'
_cell_volume   1974.45496823
_cell_formula_units_Z   2
loop_
 _symmetry_equiv_pos_site_id
 _symmetry_equiv_pos_as_xyz
  1  'x, y, z'
loop_
 _atom_site_type_symbol
 _atom_site_label
 _atom_site_symmetry_multiplicity
 _atom_site_fract_x
 _atom_site_fract_y
 _atom_site_fract_z
 _atom_site_occupancy
  Ba  Ba0  1  0.85278000  0.54834000  0.46507000  1
  Ba  Ba1  1  0.33706000  0.45175000  0.53494000  1
  P  P2  1  0.04104000  0.39477000  0.33633000  1
  P  P3  1  0.67288000  0.75403000  0.55610000  1
  P  P4  1  0.13244000  0.81974000  0.39874000  1
  P  P5  1  0.14867000  0.60532000  0.66368000  1
  P  P6  1  0.05908000  0.17718000  0.60313000  1
  P  P7  1  0.65755000  0.57108000  0.27828000  1
  P  P8  1  0.51952000  0.22996000  0.44336000  1
  P  P9  1  0.55100000  0.39253000  0.72556000  1
  H  H10  1  0.54650000  0.77969000  0.33476000  1
  H  H11  1  0.63365000  0.63860000  0.67083000  1
  H  H12  1  0.75875000  0.92288000  0.34577000  1
  H  H13  1  0.75610000  0.67459000  0.79215000  1
  H  H14  1  0.64534000  0.78001000  0.78324000  1
  H  H15  1  0.55361000  0.74688000  0.23908000  1
  H  H16  1  0.45801000  0.33607000  0.33670000  1
  H  H17  1  0.64639000  0.29183000  0.30950000  1
  H  H18  1  0.31894000  0.25626000  0.23022000  1
  H  H19  1  0.43412000  0.14854000  0.21551000  1
  H  H20  1  0.83949000  0.87632000  0.26227000  1
  H  H21  1  0.15640000  0.92052000  0.65059000  1
  H  H22  1  0.23159000  0.70856000  0.15619000  1
  H  H23  1  0.13741000  0.29839000  0.74291000  1
  H  H24  1  0.29629000  0.19846000  0.81790000  1
  H  H25  1  0.13569000  0.24279000  0.86545000  1
  H  H26  1  0.11689000  0.10477000  0.82370000  1
  H  H27  1  0.58349000  0.18844000  0.65630000  1
  H  H28  1  0.38030000  0.19344000  0.65672000  1
  H  H29  1  0.52818000  0.08321000  0.76989000  1
  H  H30  1  0.49891000  0.01763000  0.67709000  1
  H  H31  1  0.21023000  0.70136000  0.28235000  1
  H  H32  1  0.31109000  0.93488000  0.58652000  1
  H  H33  1  0.33002000  0.05070000  0.72724000  1
  H  H34  1  0.81999000  0.49148000  0.65692000  1
  H  H35  1  0.58740000  0.39022000  0.87351000  1
  H  H36  1  0.90830000  0.32645000  0.19461000  1
  H  H37  1  0.29910000  0.66156000  0.80028000  1
  H  H38  1  0.35551000  0.53072000  0.34881000  1
  H  H39  1  0.69650000  0.37005000  0.98840000  1
  H  H40  1  0.82252000  0.31053000  0.06986000  1
  H  H41  1  0.32081000  0.82733000  0.27138000  1
  H  H42  1  0.50773000  0.56142000  0.99398000  1
  H  H43  1  0.12517000  0.84569000  0.56088000  1
  H  H44  1  0.33795000  0.03029000  0.41844000  1
  H  H45  1  0.86667000  0.95829000  0.57930000  1
  H  H46  1  0.79194000  0.26681000  0.54695000  1
  H  H47  1  0.38384000  0.72314000  0.46190000  1
  H  H48  1  0.02653000  0.69790000  0.17865000  1
  H  H49  1  0.40618000  0.81913000  0.65809000  1
  H  H50  1  0.30087000  0.72802000  0.58184000  1
  H  H51  1  0.76322000  0.16138000  0.35753000  1
  H  H52  1  0.55634000  0.94347000  0.12618000  1
  H  H53  1  0.80944000  0.03027000  0.76483000  1
  H  H54  1  0.20729000  0.24497000  0.34640000  1
  H  H55  1  0.89242000  0.65841000  0.03953000  1
  H  H56  1  0.57870000  0.78857000  0.03683000  1
  H  H57  1  0.95147000  0.95720000  0.11501000  1
  H  H58  1  0.99584000  0.03917000  0.26982000  1
  H  H59  1  0.20882000  0.07136000  0.28474000  1
  H  H60  1  0.10482000  0.12723000  0.21698000  1
  H  H61  1  0.84752000  0.68621000  0.66324000  1
  C  C62  1  0.72664000  0.88455000  0.28906000  1
  C  C63  1  0.93028000  0.36700000  0.08948000  1
  C  C64  1  0.78027000  0.40543000  0.95288000  1
  C  C65  1  0.20002000  0.77859000  0.26523000  1
  C  C66  1  0.94508000  0.44308000  0.97480000  1
  C  C67  1  0.71531000  0.41833000  0.88578000  1
  C  C68  1  0.81388000  0.46257000  0.83518000  1
  C  C69  1  0.97790000  0.50559000  0.85679000  1
  C  C70  1  0.04183000  0.50020000  0.92786000  1
  C  C71  1  0.75526000  0.46217000  0.76296000  1
  C  C72  1  0.86275000  0.49877000  0.71296000  1
  C  C73  1  0.62928000  0.77474000  0.29002000  1
  C  C74  1  0.02244000  0.54691000  0.73377000  1
  C  C75  1  0.07812000  0.55437000  0.80744000  1
  C  C76  1  0.16707000  0.48969000  0.06990000  1
  C  C77  1  0.14335000  0.75224000  0.18475000  1
  C  C78  1  0.22791000  0.49272000  0.14337000  1
  C  C79  1  0.12437000  0.44353000  0.19196000  1
  C  C80  1  0.98254000  0.37457000  0.16215000  1
  C  C81  1  0.22834000  0.61335000  0.83405000  1
  C  C82  1  0.28656000  0.61923000  0.90565000  1
  C  C83  1  0.20161000  0.55210000  0.95162000  1
  C  C84  1  0.51482000  0.26902000  0.31129000  1
  C  C85  1  0.26542000  0.53769000  0.02072000  1
  C  C86  1  0.42983000  0.55574000  0.03796000  1
  C  C87  1  0.39230000  0.54100000  0.16655000  1
  C  C88  1  0.49673000  0.56593000  0.10868000  1
  C  C89  1  0.28602000  0.78671000  0.63009000  1
  C  C90  1  0.43897000  0.55439000  0.24361000  1
  C  C91  1  0.32126000  0.52044000  0.29162000  1
  C  C92  1  0.16814000  0.46070000  0.26759000  1
  C  C93  1  0.74975000  0.18175000  0.53917000  1
  C  C94  1  0.43206000  0.80729000  0.46812000  1
  C  C95  1  0.44073000  0.23498000  0.23368000  1
  C  C96  1  0.40469000  0.98200000  0.44511000  1
  C  C97  1  0.34117000  0.87404000  0.43906000  1
  C  C98  1  0.57920000  0.84806000  0.50863000  1
  C  C99  1  0.64063000  0.95991000  0.51820000  1
  C  C100  1  0.55039000  0.02734000  0.48602000  1
  C  C101  1  0.21583000  0.87774000  0.60586000  1
  C  C102  1  0.60736000  0.13886000  0.49606000  1
  C  C103  1  0.84784000  0.11642000  0.56554000  1
  C  C104  1  0.79083000  0.00628000  0.55675000  1
  C  C105  1  0.08612000  0.19859000  0.32949000  1
  C  C106  1  0.08899000  0.21449000  0.74797000  1
  C  C107  1  0.09962000  0.10403000  0.27158000  1
  C  C108  1  0.73295000  0.70843000  0.68280000  1
  C  C109  1  0.75096000  0.74388000  0.76466000  1
  C  C110  1  0.16397000  0.18828000  0.81737000  1
  C  C111  1  0.48253000  0.18561000  0.69191000  1
  C  C112  1  0.45796000  0.07794000  0.71780000  1
  C  C113  1  0.01141000  0.43377000  0.04464000  1
  S  S114  1  0.99582000  0.15256000  0.40287000  1
  S  S115  1  0.62036000  0.96297000  0.24062000  1
  S  S116  1  0.87970000  0.19586000  0.75553000  1
  S  S117  1  0.70887000  0.61410000  0.11286000  1
  S  S118  1  0.45119000  0.72542000  0.93390000  1
  S  S119  1  0.13021000  0.86300000  0.13874000  1
  Br  Br120  1  0.94776000  0.84584000  0.79337000  1
  Br  Br121  1  0.56032000  0.30785000  0.16498000  1
  O  O122  1  0.87309000  0.42589000  0.32514000  1
  O  O123  1  0.17594000  0.12427000  0.55341000  1
  O  O124  1  0.12054000  0.14380000  0.68714000  1
  O  O125  1  0.12242000  0.43437000  0.41438000  1
  O  O126  1  0.57837000  0.63380000  0.53638000  1
  O  O127  1  0.34151000  0.23185000  0.46551000  1
  O  O128  1  0.48542000  0.18402000  0.34995000  1
  O  O129  1  0.41446000  0.45057000  0.75562000  1
  O  O130  1  0.50853000  0.26740000  0.75250000  1
  O  O131  1  0.65950000  0.62710000  0.36881000  1
  O  O132  1  0.63198000  0.49348000  0.33293000  1
  O  O133  1  0.69583000  0.79245000  0.65028000  1
  O  O134  1  0.98051000  0.25872000  0.30493000  1
  O  O135  1  0.74078000  0.70708000  0.30191000  1
  O  O136  1  0.84820000  0.76819000  0.53453000  1
  O  O137  1  0.08116000  0.68595000  0.40481000  1
  O  O138  1  0.00197000  0.87105000  0.44059000  1
  O  O139  1  0.07375000  0.06540000  0.42369000  1
  O  O140  1  0.01570000  0.24649000  0.46186000  1
  O  O141  1  0.80047000  0.10644000  0.38143000  1
  O  O142  1  0.48445000  0.99373000  0.28409000  1
  O  O143  1  0.72959000  0.06197000  0.22781000  1
  O  O144  1  0.09308000  0.83123000  0.30760000  1
  O  O145  1  0.54772000  0.89153000  0.16025000  1
  O  O146  1  0.83310000  0.22457000  0.83188000  1
  O  O147  1  0.82503000  0.26786000  0.70869000  1
  O  O148  1  0.80215000  0.06812000  0.72310000  1
  O  O149  1  0.74619000  0.72375000  0.15505000  1
  O  O150  1  0.80069000  0.54225000  0.14601000  1
  O  O151  1  0.77781000  0.62347000  0.03039000  1
  O  O152  1  0.60558000  0.68814000  0.91235000  1
  O  O153  1  0.43246000  0.81780000  0.89624000  1
  O  O154  1  0.46139000  0.76815000  0.02345000  1
  O  O155  1  0.31661000  0.57414000  0.67490000  1
  O  O156  1  0.25970000  0.95581000  0.16758000  1
  O  O157  1  0.15202000  0.82863000  0.05974000  1
  O  O158  1  0.94989000  0.90189000  0.14631000  1
  O  O159  1  0.06729000  0.56572000  0.58563000  1
  O  O160  1  0.53021000  0.37299000  0.63120000  1
  O  O161  1  0.18536000  0.74440000  0.68025000  1
  O  O162  1  0.61134000  0.36629000  0.46363000  1
  O  O163  1  0.10855000  0.31414000  0.59520000  1
