# generated using pymatgen
data_AlCuH7C8N6O5
_symmetry_space_group_name_H-M   'P 1'
_cell_length_a   6.80201500
_cell_length_b   9.40358500
_cell_length_c   12.21657000
_cell_angle_alpha   90.07751000
_cell_angle_beta   90.65582000
_cell_angle_gamma   90.04271000
_symmetry_Int_Tables_number   1
_chemical_formula_structural   AlCuH7C8N6O5
_chemical_formula_sum   'Al2 Cu2 H14 C16 N12 O10'
_cell_volume   781.36032286
_cell_formula_units_Z   2
loop_
 _symmetry_equiv_pos_site_id
 _symmetry_equiv_pos_as_xyz
  1  'x, y, z'
loop_
 _atom_site_type_symbol
 _atom_site_label
 _atom_site_symmetry_multiplicity
 _atom_site_fract_x
 _atom_site_fract_y
 _atom_site_fract_z
 _atom_site_occupancy
  Al  Al0  1  0.00012000  0.99903500  0.99998000  1
  Al  Al1  1  0.49910000  0.99880000  0.99940000  1
  C  C2  1  0.59678000  0.65851000  0.70888000  1
  C  C3  1  0.90344000  0.66462000  0.29394000  1
  C  C4  1  0.40812250  0.32000000  0.70266000  1
  C  C5  1  0.09175250  0.32628000  0.29320000  1
  C  C6  1  0.41774000  0.30250000  0.31080000  1
  C  C7  1  0.08196000  0.29714000  0.68510000  1
  C  C8  1  0.58080000  0.70422000  0.30980000  1
  C  C9  1  0.91983500  0.69774000  0.69416000  1
  C  C10  1  0.75406000  0.73022000  0.75962000  1
  C  C11  1  0.74616000  0.73724000  0.24422000  1
  C  C12  1  0.24360000  0.25056000  0.74864000  1
  C  C13  1  0.25594750  0.25721000  0.24660000  1
  C  C14  1  0.74924500  0.82554000  0.85310000  1
  C  C15  1  0.75021500  0.83238000  0.15078000  1
  C  C16  1  0.24436750  0.16068000  0.84478000  1
  C  C17  1  0.25470000  0.16755000  0.15016000  1
  Cu  Cu18  1  0.49986000  0.49969000  0.50316000  1
  Cu  Cu19  1  0.00032000  0.49964000  0.49644000  1
  H  H20  1  0.44410750  0.65222000  0.73308000  1
  H  H21  1  0.05588000  0.65833000  0.26932000  1
  H  H22  1  0.57106000  0.27247000  0.30476000  1
  H  H23  1  0.92854000  0.26726000  0.69111500  1
  H  H24  1  0.74952000  0.18818000  0.99739000  1
  H  H25  1  0.24928000  0.80921000  0.00570000  1
  H  H26  1  0.31218000  0.76542000  0.36316250  1
  H  H27  1  0.37504000  0.82258250  0.23558500  1
  H  H28  1  0.18880000  0.76070000  0.64224000  1
  H  H29  1  0.12546250  0.81415500  0.77067250  1
  H  H30  1  0.68049500  0.39782250  0.73264000  1
  H  H31  1  0.61632000  0.24652000  0.80304000  1
  H  H32  1  0.81984000  0.40510000  0.26394000  1
  H  H33  1  0.88304000  0.25474000  0.19190000  1
  N  N34  1  0.86148000  0.61350000  0.61028000  1
  N  N35  1  0.63928000  0.61896000  0.39286000  1
  N  N36  1  0.14422000  0.38652000  0.60802000  1
  N  N37  1  0.35578000  0.39083000  0.38878000  1
  N  N38  1  0.15428000  0.40734000  0.37848000  1
  N  N39  1  0.34582750  0.40244000  0.61836000  1
  N  N40  1  0.83880000  0.59446000  0.38209250  1
  N  N41  1  0.66176000  0.58928000  0.62024000  1
  N  N42  1  0.38836000  0.74514000  0.29388000  1
  N  N43  1  0.11232000  0.73824750  0.71100000  1
  N  N44  1  0.60252250  0.30552000  0.73318000  1
  N  N45  1  0.89732000  0.31271000  0.26236000  1
  O  O46  1  0.24968000  0.91192000  0.00030000  1
  O  O47  1  0.58216000  0.86054750  0.89229750  1
  O  O48  1  0.91710000  0.86702000  0.11118000  1
  O  O49  1  0.41480000  0.12488000  0.88422000  1
  O  O50  1  0.08431750  0.13180000  0.11058000  1
  O  O51  1  0.42086000  0.13170000  0.11026000  1
  O  O52  1  0.07788000  0.12502000  0.88453500  1
  O  O53  1  0.58092000  0.87494000  0.11562000  1
  O  O54  1  0.91804500  0.86812000  0.88897500  1
  O  O55  1  0.74960000  0.08528250  0.99944000  1
