# generated using pymatgen
data_H28C45N8
_symmetry_space_group_name_H-M   'P 1'
_cell_length_a   25.46480000
_cell_length_b   34.60700000
_cell_length_c   34.60700000
_cell_angle_alpha   90.00000000
_cell_angle_beta   90.00000000
_cell_angle_gamma   90.00000000
_symmetry_Int_Tables_number   1
_chemical_formula_structural   H28C45N8
_chemical_formula_sum   'H224 C360 N64'
_cell_volume   30497.77636490
_cell_formula_units_Z   8
loop_
 _symmetry_equiv_pos_site_id
 _symmetry_equiv_pos_as_xyz
  1  'x, y, z'
loop_
 _atom_site_type_symbol
 _atom_site_label
 _atom_site_symmetry_multiplicity
 _atom_site_fract_x
 _atom_site_fract_y
 _atom_site_fract_z
 _atom_site_occupancy
  H  25  1  0.83919000  0.95906500  0.40881900  1
  H  26  1  0.88418200  0.92179000  0.36101900  1
  H  27  1  0.93985100  0.89215700  0.31289000  1
  H  28  1  0.00269900  0.87247900  0.26544500  1
  H  29  1  0.08411900  0.97843400  0.27902900  1
  H  30  1  0.95198500  0.04848500  0.39746500  1
  H  31  1  0.93981600  0.03597700  0.27873000  1
  H  32  1  0.02716400  0.13771000  0.25587000  1
  H  33  1  0.08988800  0.11977000  0.30419500  1
  H  34  1  0.06959300  0.97137500  0.40130300  1
  H  35  1  0.14398800  0.09272700  0.35498900  1
  H  36  1  0.18631700  0.05858500  0.40637100  1
  H  62  1  0.33921900  0.05721100  0.60742900  1
  H  63  1  0.38411000  0.09449300  0.65526900  1
  H  64  1  0.43968600  0.12415300  0.70343200  1
  H  65  1  0.50249400  0.14388700  0.75087600  1
  H  66  1  0.58406900  0.03799400  0.73731600  1
  H  67  1  0.45210700  0.96785200  0.61882500  1
  H  68  1  0.43979200  0.98034100  0.73756100  1
  H  69  1  0.52728900  0.87870300  0.76053600  1
  H  70  1  0.59005000  0.89668500  0.71225100  1
  H  71  1  0.56961800  0.04501100  0.61505700  1
  H  72  1  0.64418000  0.92376000  0.66149000  1
  H  73  1  0.68654400  0.95793800  0.61015100  1
  H  99  1  0.08942000  0.60737100  0.95899900  1
  H  100  1  0.13433800  0.65521400  0.92174000  1
  H  101  1  0.18994300  0.70336300  0.89209900  1
  H  102  1  0.25272600  0.75084500  0.87241200  1
  H  103  1  0.33412500  0.73737600  0.97839100  1
  H  104  1  0.20212100  0.61887100  0.04847200  1
  H  105  1  0.18979700  0.73756700  0.03599600  1
  H  106  1  0.27723100  0.76053300  0.13766800  1
  H  107  1  0.34004100  0.71228900  0.11968000  1
  H  108  1  0.31970700  0.61508000  0.97136000  1
  H  109  1  0.39423100  0.66157900  0.09259900  1
  H  110  1  0.43661500  0.61022900  0.05845000  1
  H  136  1  0.58915500  0.40878400  0.05733800  1
  H  137  1  0.63412700  0.36095300  0.09457800  1
  H  138  1  0.68973700  0.31275100  0.12416100  1
  H  139  1  0.75255300  0.26526600  0.14379800  1
  H  140  1  0.83405400  0.27898900  0.03789500  1
  H  141  1  0.70197300  0.39749700  0.96792500  1
  H  142  1  0.68976000  0.27877400  0.98032100  1
  H  143  1  0.77721800  0.25590800  0.87864200  1
  H  144  1  0.83995600  0.30420100  0.89663900  1
  H  145  1  0.81955900  0.40126200  0.04505600  1
  H  146  1  0.89408600  0.35493900  0.92374900  1
  H  147  1  0.93643400  0.40627000  0.95795000  1
  H  155  1  0.80318800  0.19399200  0.07272000  1
  H  162  1  0.89070100  0.12742200  0.27522500  1
  H  163  1  0.98837700  0.08831200  0.18551700  1
  H  164  1  0.86810100  0.27356200  0.15103700  1
  H  166  1  0.81365700  0.18977800  0.21592300  1
  H  167  1  0.82266600  0.17255000  0.26008200  1
  H  169  1  0.81689300  0.12637400  0.08423800  1
  H  170  1  0.84793600  0.11019000  0.12310900  1
  H  177  1  0.30356000  0.82217400  0.94374500  1
  H  184  1  0.39050200  0.88907400  0.74117300  1
  H  185  1  0.48862400  0.92771600  0.83078200  1
  H  186  1  0.36795600  0.74270200  0.86502700  1
  H  188  1  0.31339100  0.82676300  0.80046200  1
  H  189  1  0.32234700  0.84405100  0.75631700  1
  H  191  1  0.31743800  0.88980500  0.93237700  1
  H  192  1  0.34828200  0.90604100  0.89344300  1
  H  199  1  0.05326400  0.94362300  0.19418700  1
  H  206  1  0.14055200  0.74114400  0.12740900  1
  H  207  1  0.23835600  0.83080200  0.08844000  1
  H  208  1  0.11830100  0.86521700  0.27365900  1
  H  210  1  0.06353200  0.80044400  0.18977300  1
  H  211  1  0.07255300  0.75627700  0.17256300  1
  H  213  1  0.06688000  0.93215700  0.12655300  1
  H  214  1  0.09792500  0.89330700  0.11031600  1
  H  221  1  0.55332100  0.07277200  0.82215400  1
  H  228  1  0.64056300  0.27530800  0.88895500  1
  H  229  1  0.73836100  0.18557600  0.92790100  1
  H  230  1  0.61803400  0.15124900  0.74266400  1
  H  232  1  0.56328800  0.21596700  0.82680000  1
  H  233  1  0.57229600  0.26012500  0.84403900  1
  H  235  1  0.56705800  0.08420700  0.88978500  1
  H  236  1  0.59800600  0.12310200  0.90601200  1
  H  243  1  0.62471000  0.98284400  0.53535700  1
  H  250  1  0.90681300  0.00021000  0.48203200  1
  H  251  1  0.80227700  0.04836100  0.40168400  1
  H  252  1  0.70961100  0.05723700  0.60778400  1
  H  254  1  0.81796500  0.00077100  0.56091500  1
  H  255  1  0.87838600  0.99090300  0.54652200  1
  H  257  1  0.65935800  0.96702300  0.47404000  1
  H  258  1  0.71675100  0.98312400  0.45865200  1
  H  265  1  0.12475200  0.03366000  0.48116500  1
  H  272  1  0.40687600  0.01598100  0.53411100  1
  H  273  1  0.30225500  0.96814100  0.61452300  1
  H  274  1  0.20925000  0.95916100  0.40853000  1
  H  276  1  0.31805700  0.01532300  0.45523400  1
  H  277  1  0.37849300  0.02517600  0.46960700  1
  H  279  1  0.15974400  0.04951100  0.54234400  1
  H  280  1  0.21721100  0.03340300  0.55756300  1
  H  287  1  0.87487100  0.48099200  0.98276000  1
  H  294  1  0.15693500  0.53404500  0.00039200  1
  H  295  1  0.05241000  0.61454300  0.04821000  1
  H  296  1  0.95931700  0.40860500  0.05749400  1
  H  298  1  0.06807800  0.45517100  0.00119000  1
  H  299  1  0.12848200  0.46954600  0.99123200  1
  H  301  1  0.90972300  0.54218200  0.96683500  1
  H  302  1  0.96707700  0.55754900  0.98301700  1
  H  309  1  0.37482600  0.53551300  0.03371400  1
  H  316  1  0.65697400  0.48214500  0.01594700  1
  H  317  1  0.55210800  0.40170500  0.96825100  1
  H  318  1  0.45942700  0.60779000  0.95891200  1
  H  320  1  0.56818100  0.56105700  0.01534900  1
  H  321  1  0.62861700  0.54665800  0.02515800  1
  H  323  1  0.40966000  0.47429700  0.04972200  1
  H  324  1  0.46704500  0.45891800  0.03360700  1
  H  349  1  0.83919000  0.95906500  0.81336100  1
  H  350  1  0.88418200  0.92179000  0.76556100  1
  H  351  1  0.93985100  0.89215700  0.71743200  1
  H  352  1  0.00269900  0.87247900  0.66998700  1
  H  353  1  0.08411900  0.97843400  0.68357100  1
  H  354  1  0.95198500  0.04848500  0.80200700  1
  H  355  1  0.93981600  0.03597700  0.68327200  1
  H  356  1  0.02716400  0.13771000  0.66041200  1
  H  357  1  0.08988800  0.11977000  0.70873700  1
  H  358  1  0.06959300  0.97137500  0.80584500  1
  H  359  1  0.14398800  0.09272700  0.75953100  1
  H  360  1  0.18631700  0.05858500  0.81091300  1
  H  386  1  0.33921900  0.05721100  0.01197140  1
  H  387  1  0.38411000  0.09449300  0.05981140  1
  H  388  1  0.43968600  0.12415300  0.10797400  1
  H  389  1  0.50249400  0.14388700  0.15541800  1
  H  390  1  0.58406900  0.03799400  0.14185800  1
  H  391  1  0.45210700  0.96785200  0.02336740  1
  H  392  1  0.43979200  0.98034100  0.14210300  1
  H  393  1  0.52728900  0.87870300  0.16507800  1
  H  394  1  0.59005000  0.89668500  0.11679300  1
  H  395  1  0.56961800  0.04501100  0.01959940  1
  H  396  1  0.64418000  0.92376000  0.06603240  1
  H  397  1  0.68654400  0.95793800  0.01469340  1
  H  423  1  0.08942000  0.60737100  0.36354100  1
  H  424  1  0.13433800  0.65521400  0.32628200  1
  H  425  1  0.18994300  0.70336300  0.29664100  1
  H  426  1  0.25272600  0.75084500  0.27695400  1
  H  427  1  0.33412500  0.73737600  0.38293300  1
  H  428  1  0.20212100  0.61887100  0.45301400  1
  H  429  1  0.18979700  0.73756700  0.44053800  1
  H  430  1  0.27723100  0.76053300  0.54221000  1
  H  431  1  0.34004100  0.71228900  0.52422200  1
  H  432  1  0.31970700  0.61508000  0.37590200  1
  H  433  1  0.39423100  0.66157900  0.49714100  1
  H  434  1  0.43661500  0.61022900  0.46299200  1
  H  460  1  0.58915500  0.40878400  0.46188000  1
  H  461  1  0.63412700  0.36095300  0.49912000  1
  H  462  1  0.68973700  0.31275100  0.52870300  1
  H  463  1  0.75255300  0.26526600  0.54834000  1
  H  464  1  0.83405400  0.27898900  0.44243700  1
  H  465  1  0.70197300  0.39749700  0.37246700  1
  H  466  1  0.68976000  0.27877400  0.38486300  1
  H  467  1  0.77721800  0.25590800  0.28318400  1
  H  468  1  0.83995600  0.30420100  0.30118100  1
  H  469  1  0.81955900  0.40126200  0.44959800  1
  H  470  1  0.89408600  0.35493900  0.32829100  1
  H  471  1  0.93643400  0.40627000  0.36249200  1
  H  479  1  0.80318800  0.19399200  0.47726200  1
  H  486  1  0.89070100  0.12742200  0.67976700  1
  H  487  1  0.98837700  0.08831200  0.59005900  1
  H  488  1  0.86810100  0.27356200  0.55557900  1
  H  490  1  0.81365700  0.18977800  0.62046500  1
  H  491  1  0.82266600  0.17255000  0.66462400  1
  H  493  1  0.81689300  0.12637400  0.48878000  1
  H  494  1  0.84793600  0.11019000  0.52765100  1
  H  501  1  0.30356000  0.82217400  0.34828700  1
  H  508  1  0.39050200  0.88907400  0.14571500  1
  H  509  1  0.48862400  0.92771600  0.23532400  1
  H  510  1  0.36795600  0.74270200  0.26956900  1
  H  512  1  0.31339100  0.82676300  0.20500400  1
  H  513  1  0.32234700  0.84405100  0.16085900  1
  H  515  1  0.31743800  0.88980500  0.33691900  1
  H  516  1  0.34828200  0.90604100  0.29798500  1
  H  523  1  0.05326400  0.94362300  0.59872900  1
  H  530  1  0.14055200  0.74114400  0.53195100  1
  H  531  1  0.23835600  0.83080200  0.49298200  1
  H  532  1  0.11830100  0.86521700  0.67820100  1
  H  534  1  0.06353200  0.80044400  0.59431500  1
  H  535  1  0.07255300  0.75627700  0.57710500  1
  H  537  1  0.06688000  0.93215700  0.53109500  1
  H  538  1  0.09792500  0.89330700  0.51485800  1
  H  545  1  0.55332100  0.07277200  0.22669600  1
  H  552  1  0.64056300  0.27530800  0.29349700  1
  H  553  1  0.73836100  0.18557600  0.33244300  1
  H  554  1  0.61803400  0.15124900  0.14720600  1
  H  556  1  0.56328800  0.21596700  0.23134200  1
  H  557  1  0.57229600  0.26012500  0.24858100  1
  H  559  1  0.56705800  0.08420700  0.29432700  1
  H  560  1  0.59800600  0.12310200  0.31055400  1
  H  567  1  0.62471000  0.98284400  0.93989900  1
  H  574  1  0.90681300  0.00021000  0.88657400  1
  H  575  1  0.80227700  0.04836100  0.80622600  1
  H  576  1  0.70961100  0.05723700  0.01232640  1
  H  578  1  0.81796500  0.00077100  0.96545700  1
  H  579  1  0.87838600  0.99090300  0.95106400  1
  H  581  1  0.65935800  0.96702300  0.87858200  1
  H  582  1  0.71675100  0.98312400  0.86319400  1
  H  589  1  0.12475200  0.03366000  0.88570700  1
  H  596  1  0.40687600  0.01598100  0.93865300  1
  H  597  1  0.30225500  0.96814100  0.01906540  1
  H  598  1  0.20925000  0.95916100  0.81307200  1
  H  600  1  0.31805700  0.01532300  0.85977600  1
  H  601  1  0.37849300  0.02517600  0.87414900  1
  H  603  1  0.15974400  0.04951100  0.94688600  1
  H  604  1  0.21721100  0.03340300  0.96210500  1
  H  611  1  0.87487100  0.48099200  0.38730200  1
  H  618  1  0.15693500  0.53404500  0.40493400  1
  H  619  1  0.05241000  0.61454300  0.45275200  1
  H  620  1  0.95931700  0.40860500  0.46203600  1
  H  622  1  0.06807800  0.45517100  0.40573200  1
  H  623  1  0.12848200  0.46954600  0.39577400  1
  H  625  1  0.90972300  0.54218200  0.37137700  1
  H  626  1  0.96707700  0.55754900  0.38755900  1
  H  633  1  0.37482600  0.53551300  0.43825600  1
  H  640  1  0.65697400  0.48214500  0.42048900  1
  H  641  1  0.55210800  0.40170500  0.37279300  1
  H  642  1  0.45942700  0.60779000  0.36345400  1
  H  644  1  0.56818100  0.56105700  0.41989100  1
  H  645  1  0.62861700  0.54665800  0.42970000  1
  H  647  1  0.40966000  0.47429700  0.45426400  1
  H  648  1  0.46704500  0.45891800  0.43814900  1
  C  1  1  0.06052400  0.01695800  0.36087500  1
  C  2  1  0.08234000  0.05193900  0.34830500  1
  C  3  1  0.05139300  0.06747700  0.31937700  1
  C  4  1  0.00862000  0.04300500  0.31252000  1
  C  5  1  0.97128700  0.05356000  0.28396100  1
  C  6  1  0.97803700  0.08829900  0.26256400  1
  C  7  1  0.02185800  0.11224300  0.27046400  1
  C  8  1  0.05863100  0.10205800  0.29880900  1
  C  9  1  0.12853800  0.06714800  0.36438600  1
  C  10  1  0.15308300  0.04691200  0.39442000  1
  C  11  1  0.13196600  0.01177100  0.40860200  1
  C  12  1  0.08558400  0.99657800  0.39136800  1
  C  13  1  0.96398200  0.99993600  0.36110000  1
  C  14  1  0.94395900  0.96349200  0.35135600  1
  C  15  1  0.97573200  0.94648400  0.32378700  1
  C  16  1  0.01699000  0.97158000  0.31465900  1
  C  17  1  0.97024200  0.91019400  0.30608800  1
  C  18  1  0.00732800  0.89887800  0.27841500  1
  C  19  1  0.04969300  0.92339600  0.26819400  1
  C  20  1  0.05408400  0.96019500  0.28622000  1
  C  21  1  0.93745900  0.02209200  0.38963200  1
  C  22  1  0.89106200  0.00742500  0.40733900  1
  C  23  1  0.87210600  0.97055400  0.39622300  1
  C  24  1  0.89827600  0.94844600  0.36835000  1
  C  37  1  0.01232400  0.00798900  0.33773200  1
  C  38  1  0.56057400  0.99943900  0.65550000  1
  C  39  1  0.58245100  0.96449200  0.66811300  1
  C  40  1  0.55147500  0.94892900  0.69701200  1
  C  41  1  0.50865100  0.97336300  0.70382500  1
  C  42  1  0.47130200  0.96278700  0.73236300  1
  C  43  1  0.47809200  0.92807200  0.75378900  1
  C  44  1  0.52195600  0.90415700  0.74592600  1
  C  45  1  0.55874800  0.91436300  0.71760300  1
  C  46  1  0.62871100  0.94933000  0.65208400  1
  C  47  1  0.65328700  0.96959200  0.62207900  1
  C  48  1  0.63213200  0.00471200  0.60787100  1
  C  49  1  0.58564000  0.01982800  0.62501800  1
  C  50  1  0.46400200  0.01639600  0.65521900  1
  C  51  1  0.44392300  0.05282500  0.66496000  1
  C  52  1  0.47564900  0.06985500  0.69254100  1
  C  53  1  0.51693700  0.04478900  0.70168100  1
  C  54  1  0.47010400  0.10614300  0.71023400  1
  C  55  1  0.50717900  0.11749500  0.73790200  1
  C  56  1  0.54958600  0.09301600  0.74812300  1
  C  57  1  0.55400800  0.05620600  0.73012300  1
  C  58  1  0.43753000  0.99423200  0.62666700  1
  C  59  1  0.39113000  0.00886900  0.60894300  1
  C  60  1  0.37213000  0.04573200  0.62004500  1
  C  61  1  0.39824800  0.06785100  0.64793200  1
  C  74  1  0.51233500  0.00837400  0.67861100  1
  C  75  1  0.31063700  0.65553700  0.01692000  1
  C  76  1  0.33249100  0.66815600  0.05186900  1
  C  77  1  0.30150200  0.69705500  0.06742000  1
  C  78  1  0.25867800  0.70385400  0.04297900  1
  C  79  1  0.22130100  0.73237400  0.05355800  1
  C  80  1  0.22804300  0.75377500  0.08829500  1
  C  81  1  0.27192100  0.74593200  0.11220500  1
  C  82  1  0.30874500  0.71763500  0.10199300  1
  C  83  1  0.37873800  0.65213100  0.06705300  1
  C  84  1  0.40332600  0.62212500  0.04680600  1
  C  85  1  0.38215700  0.60787400  0.01170800  1
  C  86  1  0.33571700  0.62504900  0.99654300  1
  C  87  1  0.21408900  0.65523100  0.99991500  1
  C  88  1  0.19406900  0.66494600  0.96346000  1
  C  89  1  0.22580400  0.69253300  0.94644600  1
  C  90  1  0.26702200  0.70171900  0.97155700  1
  C  91  1  0.22031300  0.71019700  0.91014200  1
  C  92  1  0.25737500  0.73788500  0.89881400  1
  C  93  1  0.29973700  0.74813400  0.92332700  1
  C  94  1  0.30411000  0.73015200  0.96014600  1
  C  95  1  0.18759400  0.62668500  0.02207100  1
  C  96  1  0.14125600  0.60891400  0.00738500  1
  C  97  1  0.12230400  0.62000100  0.97050200  1
  C  98  1  0.14843900  0.64789100  0.94839700  1
  C  111  1  0.26239600  0.67864000  0.00796600  1
  C  112  1  0.81050400  0.36086300  0.99944400  1
  C  113  1  0.83235700  0.34829300  0.96447700  1
  C  114  1  0.80140900  0.31938000  0.94891100  1
  C  115  1  0.75860100  0.31253200  0.97335400  1
  C  116  1  0.72126300  0.28398800  0.96276700  1
  C  117  1  0.72804900  0.26258900  0.92803400  1
  C  118  1  0.77190900  0.27047900  0.90412300  1
  C  119  1  0.80868200  0.29881500  0.91433400  1
  C  120  1  0.87859800  0.36434800  0.94931000  1
  C  121  1  0.90315300  0.39435300  0.96958000  1
  C  122  1  0.88198300  0.40855300  0.00469800  1
  C  123  1  0.83556600  0.39133700  0.01985300  1
  C  124  1  0.71394300  0.36108600  0.01644200  1
  C  125  1  0.69390300  0.35131000  0.05287400  1
  C  126  1  0.72567300  0.32373200  0.06987200  1
  C  127  1  0.76693800  0.31462400  0.04477500  1
  C  128  1  0.72014800  0.30597800  0.10613200  1
  C  129  1  0.75721400  0.27828200  0.11742400  1
  C  130  1  0.79960200  0.26809900  0.09291200  1
  C  131  1  0.80401600  0.28616500  0.05613600  1
  C  132  1  0.68742800  0.38963800  0.99430700  1
  C  133  1  0.64100300  0.40731300  0.00896100  1
  C  134  1  0.62204700  0.39617400  0.04582700  1
  C  135  1  0.64822100  0.36829500  0.06792400  1
  C  148  1  0.76228800  0.33772300  0.00838300  1
  C  149  1  0.83433300  0.23904700  0.10666600  1
  C  150  1  0.86395000  0.24615700  0.14040700  1
  C  152  1  0.87401900  0.17847700  0.15314000  1
  C  153  1  0.84685200  0.16908100  0.11845800  1
  C  154  1  0.82696600  0.20003600  0.09582900  1
  C  156  1  0.89130900  0.15118200  0.18098400  1
  C  157  1  0.87383000  0.15086400  0.22011300  1
  C  158  1  0.90002700  0.12608900  0.24644200  1
  C  159  1  0.94179500  0.10201400  0.23458000  1
  C  160  1  0.95627400  0.10315900  0.19523100  1
  C  171  1  0.33444800  0.77720000  0.90952900  1
  C  172  1  0.36392700  0.77008600  0.87573500  1
  C  174  1  0.37403500  0.83780400  0.86316000  1
  C  175  1  0.34707300  0.84714000  0.89795600  1
  C  176  1  0.32726900  0.81615800  0.92059300  1
  C  178  1  0.39124700  0.86515900  0.83535100  1
  C  179  1  0.37368000  0.86557600  0.79625400  1
  C  180  1  0.39990900  0.89035100  0.76994500  1
  C  181  1  0.44181400  0.91434000  0.78172300  1
  C  182  1  0.45635200  0.91306000  0.82107600  1
  C  193  1  0.08446400  0.90957500  0.23919200  1
  C  194  1  0.11412300  0.87586500  0.24626500  1
  C  196  1  0.12401600  0.86318300  0.17855600  1
  C  197  1  0.09686400  0.89789000  0.16921200  1
  C  198  1  0.07698300  0.92047200  0.20020400  1
  C  200  1  0.14123000  0.83535300  0.15122000  1
  C  201  1  0.12374700  0.79623400  0.15089800  1
  C  202  1  0.14999500  0.76991000  0.12615100  1
  C  203  1  0.19175600  0.78169700  0.10202800  1
  C  204  1  0.20628100  0.82105000  0.10330000  1
  C  215  1  0.58432100  0.10685500  0.77713100  1
  C  216  1  0.61380500  0.14066600  0.77008100  1
  C  218  1  0.62391700  0.15329100  0.83776600  1
  C  219  1  0.59684400  0.11855500  0.84711700  1
  C  220  1  0.57700500  0.09594000  0.81613200  1
  C  222  1  0.64122700  0.18109400  0.86509300  1
  C  223  1  0.62372000  0.22021500  0.86546300  1
  C  224  1  0.64996000  0.24653400  0.89022400  1
  C  225  1  0.69175500  0.23467500  0.91425600  1
  C  226  1  0.70628900  0.19533300  0.91304000  1
  C  237  1  0.65821900  0.02126300  0.57551000  1
  C  238  1  0.70237400  0.04519000  0.58134100  1
  C  240  1  0.73790900  0.02997200  0.51874100  1
  C  241  1  0.69374600  0.00597500  0.51056400  1
  C  242  1  0.65435500  0.00249600  0.53933300  1
  C  244  1  0.78319900  0.03201300  0.49458700  1
  C  245  1  0.83332300  0.01691400  0.50512000  1
  C  246  1  0.87251500  0.01451800  0.47603000  1
  C  247  1  0.86286600  0.02614900  0.43752400  1
  C  248  1  0.81308800  0.04214200  0.42945300  1
  C  259  1  0.15808500  0.99520200  0.44095100  1
  C  260  1  0.20213100  0.97120200  0.43499300  1
  C  262  1  0.23791900  0.98638600  0.49753500  1
  C  263  1  0.19383400  0.01044600  0.50579300  1
  C  264  1  0.15428400  0.01392800  0.47714000  1
  C  266  1  0.28326500  0.98425100  0.52162500  1
  C  267  1  0.33339900  0.99928000  0.51106100  1
  C  268  1  0.37258000  0.00168700  0.54015000  1
  C  269  1  0.36304600  0.99017700  0.57871500  1
  C  270  1  0.31321500  0.97418900  0.58675100  1
  C  281  1  0.90814800  0.44083800  0.02133900  1
  C  282  1  0.95219000  0.43503000  0.04537300  1
  C  284  1  0.98795300  0.49754100  0.03005100  1
  C  285  1  0.94389200  0.50571800  0.00594900  1
  C  286  1  0.90447700  0.47696700  0.00243800  1
  C  288  1  0.03329200  0.52164300  0.03211300  1
  C  289  1  0.08340500  0.51104600  0.01706400  1
  C  290  1  0.12255100  0.54015000  0.01454600  1
  C  291  1  0.11312000  0.57871800  0.02608600  1
  C  292  1  0.06323800  0.58678300  0.04196700  1
  C  303  1  0.40833600  0.57554800  0.99511600  1
  C  304  1  0.45239300  0.58139300  0.97112900  1
  C  306  1  0.48798000  0.51884300  0.98649000  1
  C  307  1  0.44389100  0.51071400  0.01059100  1
  C  308  1  0.40444500  0.53944800  0.01402700  1
  C  310  1  0.53322700  0.49464800  0.98441300  1
  C  311  1  0.58341700  0.50519200  0.99938700  1
  C  312  1  0.62257700  0.47608200  0.00179400  1
  C  313  1  0.61287000  0.43756100  0.99029300  1
  C  314  1  0.56298900  0.42946200  0.97447000  1
  C  325  1  0.06052400  0.01695800  0.76541700  1
  C  326  1  0.08234000  0.05193900  0.75284700  1
  C  327  1  0.05139300  0.06747700  0.72391900  1
  C  328  1  0.00862000  0.04300500  0.71706200  1
  C  329  1  0.97128700  0.05356000  0.68850300  1
  C  330  1  0.97803700  0.08829900  0.66710600  1
  C  331  1  0.02185800  0.11224300  0.67500600  1
  C  332  1  0.05863100  0.10205800  0.70335100  1
  C  333  1  0.12853800  0.06714800  0.76892800  1
  C  334  1  0.15308300  0.04691200  0.79896200  1
  C  335  1  0.13196600  0.01177100  0.81314400  1
  C  336  1  0.08558400  0.99657800  0.79591000  1
  C  337  1  0.96398200  0.99993600  0.76564200  1
  C  338  1  0.94395900  0.96349200  0.75589800  1
  C  339  1  0.97573200  0.94648400  0.72832900  1
  C  340  1  0.01699000  0.97158000  0.71920100  1
  C  341  1  0.97024200  0.91019400  0.71063000  1
  C  342  1  0.00732800  0.89887800  0.68295700  1
  C  343  1  0.04969300  0.92339600  0.67273600  1
  C  344  1  0.05408400  0.96019500  0.69076200  1
  C  345  1  0.93745900  0.02209200  0.79417400  1
  C  346  1  0.89106200  0.00742500  0.81188100  1
  C  347  1  0.87210600  0.97055400  0.80076500  1
  C  348  1  0.89827600  0.94844600  0.77289200  1
  C  361  1  0.01232400  0.00798900  0.74227400  1
  C  362  1  0.56057400  0.99943900  0.06004240  1
  C  363  1  0.58245100  0.96449200  0.07265540  1
  C  364  1  0.55147500  0.94892900  0.10155400  1
  C  365  1  0.50865100  0.97336300  0.10836700  1
  C  366  1  0.47130200  0.96278700  0.13690500  1
  C  367  1  0.47809200  0.92807200  0.15833100  1
  C  368  1  0.52195600  0.90415700  0.15046800  1
  C  369  1  0.55874800  0.91436300  0.12214500  1
  C  370  1  0.62871100  0.94933000  0.05662640  1
  C  371  1  0.65328700  0.96959200  0.02662140  1
  C  372  1  0.63213200  0.00471200  0.01241340  1
  C  373  1  0.58564000  0.01982800  0.02956040  1
  C  374  1  0.46400200  0.01639600  0.05976140  1
  C  375  1  0.44392300  0.05282500  0.06950240  1
  C  376  1  0.47564900  0.06985500  0.09708340  1
  C  377  1  0.51693700  0.04478900  0.10622300  1
  C  378  1  0.47010400  0.10614300  0.11477600  1
  C  379  1  0.50717900  0.11749500  0.14244400  1
  C  380  1  0.54958600  0.09301600  0.15266500  1
  C  381  1  0.55400800  0.05620600  0.13466500  1
  C  382  1  0.43753000  0.99423200  0.03120940  1
  C  383  1  0.39113000  0.00886900  0.01348540  1
  C  384  1  0.37213000  0.04573200  0.02458740  1
  C  385  1  0.39824800  0.06785100  0.05247440  1
  C  398  1  0.51233500  0.00837400  0.08315340  1
  C  399  1  0.31063700  0.65553700  0.42146200  1
  C  400  1  0.33249100  0.66815600  0.45641100  1
  C  401  1  0.30150200  0.69705500  0.47196200  1
  C  402  1  0.25867800  0.70385400  0.44752100  1
  C  403  1  0.22130100  0.73237400  0.45810000  1
  C  404  1  0.22804300  0.75377500  0.49283700  1
  C  405  1  0.27192100  0.74593200  0.51674700  1
  C  406  1  0.30874500  0.71763500  0.50653500  1
  C  407  1  0.37873800  0.65213100  0.47159500  1
  C  408  1  0.40332600  0.62212500  0.45134800  1
  C  409  1  0.38215700  0.60787400  0.41625000  1
  C  410  1  0.33571700  0.62504900  0.40108500  1
  C  411  1  0.21408900  0.65523100  0.40445700  1
  C  412  1  0.19406900  0.66494600  0.36800200  1
  C  413  1  0.22580400  0.69253300  0.35098800  1
  C  414  1  0.26702200  0.70171900  0.37609900  1
  C  415  1  0.22031300  0.71019700  0.31468400  1
  C  416  1  0.25737500  0.73788500  0.30335600  1
  C  417  1  0.29973700  0.74813400  0.32786900  1
  C  418  1  0.30411000  0.73015200  0.36468800  1
  C  419  1  0.18759400  0.62668500  0.42661300  1
  C  420  1  0.14125600  0.60891400  0.41192700  1
  C  421  1  0.12230400  0.62000100  0.37504400  1
  C  422  1  0.14843900  0.64789100  0.35293900  1
  C  435  1  0.26239600  0.67864000  0.41250800  1
  C  436  1  0.81050400  0.36086300  0.40398600  1
  C  437  1  0.83235700  0.34829300  0.36901900  1
  C  438  1  0.80140900  0.31938000  0.35345300  1
  C  439  1  0.75860100  0.31253200  0.37789600  1
  C  440  1  0.72126300  0.28398800  0.36730900  1
  C  441  1  0.72804900  0.26258900  0.33257600  1
  C  442  1  0.77190900  0.27047900  0.30866500  1
  C  443  1  0.80868200  0.29881500  0.31887600  1
  C  444  1  0.87859800  0.36434800  0.35385200  1
  C  445  1  0.90315300  0.39435300  0.37412200  1
  C  446  1  0.88198300  0.40855300  0.40924000  1
  C  447  1  0.83556600  0.39133700  0.42439500  1
  C  448  1  0.71394300  0.36108600  0.42098400  1
  C  449  1  0.69390300  0.35131000  0.45741600  1
  C  450  1  0.72567300  0.32373200  0.47441400  1
  C  451  1  0.76693800  0.31462400  0.44931700  1
  C  452  1  0.72014800  0.30597800  0.51067400  1
  C  453  1  0.75721400  0.27828200  0.52196600  1
  C  454  1  0.79960200  0.26809900  0.49745400  1
  C  455  1  0.80401600  0.28616500  0.46067800  1
  C  456  1  0.68742800  0.38963800  0.39884900  1
  C  457  1  0.64100300  0.40731300  0.41350300  1
  C  458  1  0.62204700  0.39617400  0.45036900  1
  C  459  1  0.64822100  0.36829500  0.47246600  1
  C  472  1  0.76228800  0.33772300  0.41292500  1
  C  473  1  0.83433300  0.23904700  0.51120800  1
  C  474  1  0.86395000  0.24615700  0.54494900  1
  C  476  1  0.87401900  0.17847700  0.55768200  1
  C  477  1  0.84685200  0.16908100  0.52300000  1
  C  478  1  0.82696600  0.20003600  0.50037100  1
  C  480  1  0.89130900  0.15118200  0.58552600  1
  C  481  1  0.87383000  0.15086400  0.62465500  1
  C  482  1  0.90002700  0.12608900  0.65098400  1
  C  483  1  0.94179500  0.10201400  0.63912200  1
  C  484  1  0.95627400  0.10315900  0.59977300  1
  C  495  1  0.33444800  0.77720000  0.31407100  1
  C  496  1  0.36392700  0.77008600  0.28027700  1
  C  498  1  0.37403500  0.83780400  0.26770200  1
  C  499  1  0.34707300  0.84714000  0.30249800  1
  C  500  1  0.32726900  0.81615800  0.32513500  1
  C  502  1  0.39124700  0.86515900  0.23989300  1
  C  503  1  0.37368000  0.86557600  0.20079600  1
  C  504  1  0.39990900  0.89035100  0.17448700  1
  C  505  1  0.44181400  0.91434000  0.18626500  1
  C  506  1  0.45635200  0.91306000  0.22561800  1
  C  517  1  0.08446400  0.90957500  0.64373400  1
  C  518  1  0.11412300  0.87586500  0.65080700  1
  C  520  1  0.12401600  0.86318300  0.58309800  1
  C  521  1  0.09686400  0.89789000  0.57375400  1
  C  522  1  0.07698300  0.92047200  0.60474600  1
  C  524  1  0.14123000  0.83535300  0.55576200  1
  C  525  1  0.12374700  0.79623400  0.55544000  1
  C  526  1  0.14999500  0.76991000  0.53069300  1
  C  527  1  0.19175600  0.78169700  0.50657000  1
  C  528  1  0.20628100  0.82105000  0.50784200  1
  C  539  1  0.58432100  0.10685500  0.18167300  1
  C  540  1  0.61380500  0.14066600  0.17462300  1
  C  542  1  0.62391700  0.15329100  0.24230800  1
  C  543  1  0.59684400  0.11855500  0.25165900  1
  C  544  1  0.57700500  0.09594000  0.22067400  1
  C  546  1  0.64122700  0.18109400  0.26963500  1
  C  547  1  0.62372000  0.22021500  0.27000500  1
  C  548  1  0.64996000  0.24653400  0.29476600  1
  C  549  1  0.69175500  0.23467500  0.31879800  1
  C  550  1  0.70628900  0.19533300  0.31758200  1
  C  561  1  0.65821900  0.02126300  0.98005200  1
  C  562  1  0.70237400  0.04519000  0.98588300  1
  C  564  1  0.73790900  0.02997200  0.92328300  1
  C  565  1  0.69374600  0.00597500  0.91510600  1
  C  566  1  0.65435500  0.00249600  0.94387500  1
  C  568  1  0.78319900  0.03201300  0.89912900  1
  C  569  1  0.83332300  0.01691400  0.90966200  1
  C  570  1  0.87251500  0.01451800  0.88057200  1
  C  571  1  0.86286600  0.02614900  0.84206600  1
  C  572  1  0.81308800  0.04214200  0.83399500  1
  C  583  1  0.15808500  0.99520200  0.84549300  1
  C  584  1  0.20213100  0.97120200  0.83953500  1
  C  586  1  0.23791900  0.98638600  0.90207700  1
  C  587  1  0.19383400  0.01044600  0.91033500  1
  C  588  1  0.15428400  0.01392800  0.88168200  1
  C  590  1  0.28326500  0.98425100  0.92616700  1
  C  591  1  0.33339900  0.99928000  0.91560300  1
  C  592  1  0.37258000  0.00168700  0.94469200  1
  C  593  1  0.36304600  0.99017700  0.98325700  1
  C  594  1  0.31321500  0.97418900  0.99129300  1
  C  605  1  0.90814800  0.44083800  0.42588100  1
  C  606  1  0.95219000  0.43503000  0.44991500  1
  C  608  1  0.98795300  0.49754100  0.43459300  1
  C  609  1  0.94389200  0.50571800  0.41049100  1
  C  610  1  0.90447700  0.47696700  0.40698000  1
  C  612  1  0.03329200  0.52164300  0.43665500  1
  C  613  1  0.08340500  0.51104600  0.42160600  1
  C  614  1  0.12255100  0.54015000  0.41908800  1
  C  615  1  0.11312000  0.57871800  0.43062800  1
  C  616  1  0.06323800  0.58678300  0.44650900  1
  C  627  1  0.40833600  0.57554800  0.39965800  1
  C  628  1  0.45239300  0.58139300  0.37567100  1
  C  630  1  0.48798000  0.51884300  0.39103200  1
  C  631  1  0.44389100  0.51071400  0.41513300  1
  C  632  1  0.40444500  0.53944800  0.41856900  1
  C  634  1  0.53322700  0.49464800  0.38895500  1
  C  635  1  0.58341700  0.50519200  0.40392900  1
  C  636  1  0.62257700  0.47608200  0.40633600  1
  C  637  1  0.61287000  0.43756100  0.39483500  1
  C  638  1  0.56298900  0.42946200  0.37901200  1
  N  151  1  0.88145700  0.21631100  0.16216200  1
  N  161  1  0.93155700  0.12758500  0.17056600  1
  N  165  1  0.83401800  0.17356600  0.23322400  1
  N  168  1  0.83643000  0.13207400  0.10775700  1
  N  173  1  0.38137900  0.79998200  0.85402300  1
  N  183  1  0.43165900  0.88861400  0.84573300  1
  N  187  1  0.33376100  0.84296700  0.78315900  1
  N  190  1  0.33682400  0.88413500  0.90878400  1
  N  195  1  0.13154800  0.85413300  0.21637600  1
  N  205  1  0.18155500  0.84574700  0.12768900  1
  N  209  1  0.08390300  0.78313600  0.17357500  1
  N  212  1  0.08641400  0.90862800  0.13222100  1
  N  217  1  0.63133900  0.16237500  0.79994400  1
  N  227  1  0.68152900  0.17066800  0.88863700  1
  N  231  1  0.58386500  0.23332700  0.84280000  1
  N  234  1  0.58652000  0.10776700  0.88411200  1
  N  239  1  0.73988100  0.04816400  0.55359600  1
  N  249  1  0.77586000  0.04377600  0.45745300  1
  N  253  1  0.84408300  0.00188000  0.54059200  1
  N  256  1  0.68941500  0.98395600  0.47811400  1
  N  261  1  0.23971200  0.96818500  0.46267800  1
  N  271  1  0.27593200  0.97258900  0.55878500  1
  N  275  1  0.34417400  0.01424500  0.47556200  1
  N  278  1  0.18966100  0.03244200  0.53827500  1
  N  283  1  0.98975500  0.46273300  0.04834300  1
  N  293  1  0.02596600  0.55882000  0.04372300  1
  N  297  1  0.09418000  0.47551300  0.00218400  1
  N  300  1  0.93970600  0.53812200  0.98384300  1
  N  305  1  0.48987300  0.55362700  0.96815000  1
  N  315  1  0.52579300  0.45748200  0.97278500  1
  N  319  1  0.59430300  0.54073700  0.01420500  1
  N  322  1  0.43963500  0.47831300  0.03269500  1
  N  475  1  0.88145700  0.21631100  0.56670400  1
  N  485  1  0.93155700  0.12758500  0.57510800  1
  N  489  1  0.83401800  0.17356600  0.63776600  1
  N  492  1  0.83643000  0.13207400  0.51229900  1
  N  497  1  0.38137900  0.79998200  0.25856500  1
  N  507  1  0.43165900  0.88861400  0.25027500  1
  N  511  1  0.33376100  0.84296700  0.18770100  1
  N  514  1  0.33682400  0.88413500  0.31332600  1
  N  519  1  0.13154800  0.85413300  0.62091800  1
  N  529  1  0.18155500  0.84574700  0.53223100  1
  N  533  1  0.08390300  0.78313600  0.57811700  1
  N  536  1  0.08641400  0.90862800  0.53676300  1
  N  541  1  0.63133900  0.16237500  0.20448600  1
  N  551  1  0.68152900  0.17066800  0.29317900  1
  N  555  1  0.58386500  0.23332700  0.24734200  1
  N  558  1  0.58652000  0.10776700  0.28865400  1
  N  563  1  0.73988100  0.04816400  0.95813800  1
  N  573  1  0.77586000  0.04377600  0.86199500  1
  N  577  1  0.84408300  0.00188000  0.94513400  1
  N  580  1  0.68941500  0.98395600  0.88265600  1
  N  585  1  0.23971200  0.96818500  0.86722000  1
  N  595  1  0.27593200  0.97258900  0.96332700  1
  N  599  1  0.34417400  0.01424500  0.88010400  1
  N  602  1  0.18966100  0.03244200  0.94281700  1
  N  607  1  0.98975500  0.46273300  0.45288500  1
  N  617  1  0.02596600  0.55882000  0.44826500  1
  N  621  1  0.09418000  0.47551300  0.40672600  1
  N  624  1  0.93970600  0.53812200  0.38838500  1
  N  629  1  0.48987300  0.55362700  0.37269200  1
  N  639  1  0.52579300  0.45748200  0.37732700  1
  N  643  1  0.59430300  0.54073700  0.41874700  1
  N  646  1  0.43963500  0.47831300  0.43723700  1
