# generated using pymatgen
data_H14C13N5O
_symmetry_space_group_name_H-M   'P 1'
_cell_length_a   14.96740000
_cell_length_b   14.96740000
_cell_length_c   44.90210000
_cell_angle_alpha   90.00000000
_cell_angle_beta   90.00000000
_cell_angle_gamma   120.00000000
_symmetry_Int_Tables_number   1
_chemical_formula_structural   H14C13N5O
_chemical_formula_sum   'H84 C78 N30 O6'
_cell_volume   8711.44130622
_cell_formula_units_Z   6
loop_
 _symmetry_equiv_pos_site_id
 _symmetry_equiv_pos_as_xyz
  1  'x, y, z'
loop_
 _atom_site_type_symbol
 _atom_site_label
 _atom_site_symmetry_multiplicity
 _atom_site_fract_x
 _atom_site_fract_y
 _atom_site_fract_z
 _atom_site_occupancy
  C  1  1  0.99645250  0.02539750  0.31839700  1
  C  7  1  0.99065600  0.97969100  0.70535700  1
  C  9  1  0.98847350  0.02662850  0.95843900  1
  C  10  1  0.98675250  0.96390550  0.34401700  1
  C  11  1  0.98828150  0.17051650  0.29422400  1
  C  15  1  0.98807350  0.00866050  0.03869700  1
  C  17  1  0.03553450  0.02368550  0.01069200  1
  C  19  1  0.04398350  0.05937850  0.06455300  1
  C  20  1  0.15326800  0.12644500  0.06275200  1
  C  21  1  0.20184150  0.15065450  0.03405100  1
  C  22  1  0.14202400  0.09724500  0.00880800  1
  C  25  1  0.97421400  0.97172700  0.98506100  1
  C  26  1  0.89305700  0.86796200  0.98584600  1
  C  27  1  0.82915600  0.81835700  0.96089900  1
  C  28  1  0.85184750  0.87351450  0.93323600  1
  C  29  1  0.92948950  0.98036750  0.93261900  1
  C  38  1  0.95664000  0.05018800  0.90630100  1
  C  41  1  0.73881250  0.71043850  0.96374600  1
  C  44  1  0.98219050  0.03631650  0.09243800  1
  C  47  1  0.31337750  0.23228850  0.03060600  1
  C  50  1  0.01884200  0.01122500  0.37205400  1
  C  51  1  0.01337550  0.95518050  0.39790300  1
  C  52  1  0.97113800  0.84590100  0.39607000  1
  C  53  1  0.94710700  0.79747200  0.36735000  1
  C  54  1  0.95386900  0.85743200  0.34210400  1
  C  57  1  0.97379450  0.10652450  0.31916300  1
  C  58  1  0.02099350  0.14794650  0.26658400  1
  C  59  1  0.05017900  0.07028200  0.26598500  1
  C  60  1  0.03727150  0.01121950  0.29180100  1
  C  68  1  0.09313300  0.04327000  0.23970600  1
  C  71  1  0.97066400  0.26083700  0.29705900  1
  C  74  1  0.05178900  0.01679600  0.42582800  1
  C  77  1  0.91720400  0.68594000  0.36388700  1
  C  80  1  0.97557800  0.01203400  0.67734200  1
  C  81  1  0.93981950  0.98476350  0.73120000  1
  C  82  1  0.87266800  0.02687600  0.72938200  1
  C  83  1  0.84850550  0.05126250  0.70067800  1
  C  84  1  0.90195550  0.04487750  0.67544000  1
  C  87  1  0.02745450  0.00248950  0.65172000  1
  C  88  1  0.13126050  0.02522550  0.65249300  1
  C  89  1  0.18079600  0.01076700  0.62755600  1
  C  90  1  0.12551300  0.97797600  0.59992100  1
  C  91  1  0.01865200  0.94874500  0.59931300  1
  C  92  1  0.97246900  0.96162600  0.62512400  1
  C  101  1  0.94865550  0.90576250  0.57303800  1
  C  104  1  0.28875350  0.02843050  0.63039600  1
  C  107  1  0.96284300  0.94596000  0.75907800  1
  C  110  1  0.76680650  0.08107450  0.69721900  1
  C  113  1  0.06344900  0.06435700  0.86289400  1
  C  115  1  0.05871250  0.96193950  0.82160000  1
  C  116  1  0.06831550  0.03956050  0.80194000  1
  C  118  1  0.07702900  0.14457600  0.84329600  1
  C  120  1  0.08917100  0.24467500  0.85302700  1
  C  129  1  0.00071800  0.93632700  0.19628900  1
  C  131  1  0.90274150  0.94059550  0.15500800  1
  C  132  1  0.97087350  0.93122450  0.13534100  1
  C  134  1  0.06751000  0.92301700  0.17668400  1
  C  136  1  0.15569950  0.91125250  0.18640700  1
  C  145  1  0.93348650  0.99800350  0.52968100  1
  C  147  1  0.03531600  0.09616600  0.48836200  1
  C  148  1  0.95784650  0.02780050  0.46872400  1
  C  150  1  0.85338650  0.93100150  0.51010500  1
  C  152  1  0.75364650  0.84258150  0.51986400  1
  C  161  1  0.45009150  0.36180050  0.99820700  1
  C  163  1  0.51980550  0.54331750  0.99085100  1
  C  164  1  0.62114500  0.56118200  0.99424300  1
  C  166  1  0.55204000  0.37869300  0.00115500  1
  C  168  1  0.57721250  0.29548750  0.00544000  1
  C  177  1  0.91043000  0.54939600  0.33149600  1
  C  179  1  0.02230900  0.47974100  0.32418000  1
  C  180  1  0.93883200  0.37838000  0.32753900  1
  C  182  1  0.82538300  0.44742600  0.33441200  1
  C  184  1  0.71697400  0.42220500  0.33865900  1
  C  193  1  0.63753800  0.08859400  0.66480400  1
  C  195  1  0.45595100  0.97680600  0.65756800  1
  C  196  1  0.43819050  0.06038450  0.66086400  1
  C  198  1  0.62074150  0.17373450  0.66765900  1
  C  200  1  0.70405000  0.28213200  0.67183500  1
  H  2  1  0.99884850  0.24830250  0.24062800  1
  H  23  1  0.90986750  0.96069050  0.04029400  1
  H  31  1  0.04283150  0.10351350  0.95788900  1
  H  32  1  0.75158950  0.75091850  0.90729400  1
  H  33  1  0.82332850  0.85541350  0.88829700  1
  H  34  1  0.28500800  0.20764900  0.08769000  1
  H  35  1  0.18170350  0.14086250  0.10771600  1
  H  36  1  0.17703300  0.11064400  0.98848200  1
  H  37  1  0.88142350  0.82725450  0.00510800  1
  H  39  1  0.89531050  0.02066450  0.88969700  1
  H  40  1  0.96551900  0.12431700  0.91323100  1
  H  42  1  0.75448650  0.66050950  0.94954200  1
  H  43  1  0.67141150  0.71183450  0.95486200  1
  H  45  1  0.90769750  0.03097850  0.08797300  1
  H  46  1  0.02002400  0.09959400  0.10836200  1
  H  48  1  0.35973000  0.20577900  0.04230300  1
  H  49  1  0.32229550  0.30076450  0.04211600  1
  H  55  1  0.04912350  0.08943150  0.37367300  1
  H  62  1  0.05980900  0.95686800  0.29126900  1
  H  63  1  0.03173200  0.17662800  0.22165100  1
  H  64  1  0.92027300  0.71403800  0.42097300  1
  H  65  1  0.95665050  0.81727150  0.44102600  1
  H  66  1  0.93245350  0.82252250  0.32176400  1
  H  67  1  0.94448900  0.11803200  0.33839600  1
  H  69  1  0.12487900  0.10455600  0.22308900  1
  H  70  1  0.15847500  0.03462200  0.24668500  1
  H  72  1  0.90516300  0.24520300  0.28281500  1
  H  73  1  0.03951900  0.32827900  0.28821600  1
  H  75  1  0.12083400  0.09143700  0.42142500  1
  H  76  1  0.07729600  0.97896100  0.44173200  1
  H  78  1  0.84418300  0.63956000  0.37550600  1
  H  79  1  0.97658850  0.67692750  0.37547000  1
  H  85  1  0.03860350  0.94942450  0.70695600  1
  H  94  1  0.89557150  0.93904350  0.62459400  1
  H  95  1  0.24796700  0.99967900  0.57396800  1
  H  96  1  0.14345450  0.96657150  0.55498300  1
  H  97  1  0.79084950  0.07680950  0.75433000  1
  H  98  1  0.85762300  0.04040700  0.77437300  1
  H  99  1  0.88851850  0.06639550  0.65510700  1
  H  100  1  0.17204300  0.05452800  0.67173000  1
  H  102  1  0.97828800  0.87425100  0.55637700  1
  H  103  1  0.87479700  0.84024000  0.58002200  1
  H  105  1  0.33857600  0.09384200  0.61611800  1
  H  106  1  0.28732450  0.95952450  0.62159200  1
  H  108  1  0.96787250  0.87664150  0.75460200  1
  H  109  1  0.89970550  0.92073350  0.77503700  1
  H  111  1  0.79312550  0.15381150  0.70897100  1
  H  112  1  0.69827800  0.02134700  0.70866800  1
  H  119  1  0.05042650  0.89399150  0.81390600  1
  H  122  1  0.11634850  0.29994250  0.83459700  1
  H  123  1  0.14770800  0.27735300  0.87044700  1
  H  124  1  0.94510150  0.21303950  0.84795700  1
  H  126  1  0.11834550  0.12853550  0.90302100  1
  H  128  1  0.12295300  0.02054800  0.76337000  1
  H  135  1  0.84290000  0.94859100  0.14732200  1
  H  138  1  0.18400550  0.88432950  0.16796700  1
  H  139  1  0.13001000  0.85266000  0.20380700  1
  H  140  1  0.26775450  0.05551750  0.18138500  1
  H  142  1  0.01027900  0.88155400  0.23640900  1
  H  144  1  0.89716150  0.87621250  0.09679500  1
  H  151  1  0.10301600  0.15613800  0.48065200  1
  H  154  1  0.69829750  0.81416250  0.50145300  1
  H  155  1  0.72070100  0.86805900  0.53730900  1
  H  156  1  0.78630600  0.73087300  0.51474400  1
  H  158  1  0.86933200  0.98818400  0.56984200  1
  H  160  1  0.97612850  0.10126050  0.43015600  1
  H  167  1  0.50609450  0.60282150  0.98735700  1
  H  170  1  0.66029250  0.32572950  0.00320900  1
  H  171  1  0.53971450  0.23767550  0.98802000  1
  H  172  1  0.58416400  0.29608400  0.04936700  1
  H  174  1  0.36377600  0.20891800  0.98933600  1
  H  176  1  0.69828950  0.70682850  0.00823100  1
  H  183  1  0.09554600  0.49348100  0.32071500  1
  H  186  1  0.66416000  0.33914000  0.33636900  1
  H  187  1  0.69674800  0.45983100  0.32125600  1
  H  188  1  0.71036350  0.41489750  0.38257900  1
  H  190  1  0.84397350  0.63574850  0.32253900  1
  H  192  1  0.00727500  0.30122000  0.34156300  1
  H  199  1  0.39638900  0.90356600  0.65415600  1
  H  202  1  0.67381950  0.33498950  0.66964100  1
  H  203  1  0.76157950  0.30226550  0.65434100  1
  H  204  1  0.70416750  0.28884550  0.71576100  1
  H  206  1  0.79049250  0.15519750  0.65600500  1
  H  208  1  0.29265200  0.99216400  0.67492600  1
  N  24  1  0.21050450  0.16557750  0.08812500  1
  N  30  1  0.80131800  0.82406500  0.90772500  1
  N  56  1  0.95273200  0.78854300  0.42143200  1
  N  61  1  0.02226450  0.19857450  0.24107500  1
  N  86  1  0.83347800  0.04497500  0.75473700  1
  N  93  1  0.17492100  0.97674000  0.57442300  1
  N  114  1  0.05570100  0.97706200  0.85121600  1
  N  117  1  0.07778250  0.12740950  0.81360600  1
  N  125  1  0.05542250  0.06541150  0.89401250  1
  N  127  1  0.06287250  0.02917950  0.77086600  1
  N  130  1  0.92095600  0.94371900  0.18462100  1
  N  133  1  0.04948300  0.92212000  0.14699700  1
  N  141  1  0.00982100  0.94435800  0.22740800  1
  N  143  1  0.96579300  0.93649000  0.10426400  1
  N  146  1  0.02042900  0.07795600  0.51798000  1
  N  149  1  0.87034150  0.94900850  0.48041400  1
  N  157  1  0.93266000  0.98889800  0.56079500  1
  N  159  1  0.96808750  0.03277950  0.43764500  1
  N  162  1  0.43936400  0.44546300  0.99301800  1
  N  165  1  0.63204800  0.47761900  0.99918000  1
  N  173  1  0.35673900  0.26554400  0.00006900  1
  N  175  1  0.71027850  0.66086150  0.99370400  1
  N  178  1  0.00485400  0.56016100  0.32634100  1
  N  181  1  0.84433600  0.36744100  0.33244300  1
  N  189  1  0.90749000  0.64273000  0.33333333  1
  N  191  1  0.94941100  0.28926700  0.32700400  1
  N  194  1  0.55379350  0.99416750  0.65972000  1
  N  197  1  0.52183250  0.15487650  0.66570100  1
  N  205  1  0.73377250  0.09144350  0.66666667  1
  N  207  1  0.33853300  0.04989600  0.66033200  1
  O  5  1  0.99530550  0.23475450  0.86438200  1
  O  137  1  0.23939500  0.00523000  0.19779400  1
  O  153  1  0.76434050  0.75906150  0.53118900  1
  O  169  1  0.54439100  0.24553900  0.03372000  1
  O  185  1  0.69967200  0.45478700  0.36695400  1
  O  201  1  0.75444950  0.29945250  0.70004700  1
