# generated using pymatgen
data_H48C59N4
_symmetry_space_group_name_H-M   'P 1'
_cell_length_a   9.82913333
_cell_length_b   19.65820000
_cell_length_c   19.65820000
_cell_angle_alpha   90.00000000
_cell_angle_beta   90.00000000
_cell_angle_gamma   90.00000000
_symmetry_Int_Tables_number   1
_chemical_formula_structural   H48C59N4
_chemical_formula_sum   'H48 C59 N4'
_cell_volume   3798.41773292
_cell_formula_units_Z   1
loop_
 _symmetry_equiv_pos_site_id
 _symmetry_equiv_pos_as_xyz
  1  'x, y, z'
loop_
 _atom_site_type_symbol
 _atom_site_label
 _atom_site_symmetry_multiplicity
 _atom_site_fract_x
 _atom_site_fract_y
 _atom_site_fract_z
 _atom_site_occupancy
  C  1  1  0.89349500  0.92970400  0.00324900  1
  C  2  1  0.75352400  0.92747400  0.01999900  1
  C  3  1  0.74361500  0.05624600  0.02544800  1
  C  4  1  0.88345500  0.06063600  0.00861600  1
  C  5  1  0.94410600  0.12627700  0.00485200  1
  C  6  1  0.86905900  0.18577300  0.01904800  1
  C  7  1  0.73050000  0.18014700  0.03568700  1
  C  8  1  0.66799100  0.11608800  0.03816600  1
  C  9  1  0.68665200  0.86432200  0.02737600  1
  C  10  1  0.75826500  0.80322100  0.01949700  1
  C  11  1  0.89769700  0.80353600  0.00342900  1
  C  12  1  0.96345200  0.86693500  0.99421200  1
  C  13  1  0.01302900  0.00079700  0.92288800  1
  C  14  1  0.15345500  0.00268000  0.90652800  1
  C  15  1  0.21313900  0.00210900  0.03169500  1
  C  16  1  0.07488800  0.99725000  0.05105500  1
  C  17  1  0.31307600  0.00550700  0.08250900  1
  C  18  1  0.28024600  0.00177400  0.15144100  1
  C  19  1  0.14383600  0.99547800  0.17394200  1
  C  20  1  0.04289000  0.99443000  0.12214500  1
  C  21  1  0.91772900  0.00320700  0.86828600  1
  C  22  1  0.95932200  0.00563000  0.79947200  1
  C  23  1  0.09941500  0.00697300  0.78488000  1
  C  24  1  0.19532700  0.00517300  0.83773400  1
  C  37  1  0.96633100  0.99706300  0.99637200  1
  C  38  1  0.25961300  0.00403100  0.95987300  1
  C  41  1  0.67379100  0.98996000  0.03178800  1
  C  52  1  0.96761300  0.00747600  0.52300700  1
  C  53  1  0.86842600  0.05600100  0.50376700  1
  C  54  1  0.75812200  0.07311900  0.54687000  1
  C  55  1  0.74733000  0.04036800  0.61077700  1
  C  56  1  0.84486500  0.99224600  0.63269400  1
  C  57  1  0.95109000  0.97532200  0.58723500  1
  C  61  1  0.08687300  0.99553200  0.48206600  1
  C  62  1  0.08566100  0.99448600  0.40950700  1
  C  63  1  0.20680000  0.98522100  0.37152200  1
  C  64  1  0.33026300  0.97624300  0.40767000  1
  C  65  1  0.33631500  0.97737200  0.47919700  1
  C  66  1  0.21425000  0.98784600  0.51520900  1
  C  70  1  0.45843300  0.96749300  0.51325600  1
  C  73  1  0.22029200  0.98879700  0.29586500  1
  C  76  1  0.83388700  0.95757900  0.70030400  1
  C  79  1  0.66131000  0.12043200  0.52652700  1
  C  82  1  0.98003500  0.47797200  0.98382200  1
  C  83  1  0.83844600  0.49210900  0.98454400  1
  C  84  1  0.73970900  0.44095900  0.97369400  1
  C  85  1  0.78460500  0.37367000  0.96254600  1
  C  86  1  0.92445500  0.35714800  0.96192800  1
  C  87  1  0.02052000  0.40977100  0.97171000  1
  C  91  1  0.07724800  0.53038300  0.99949500  1
  C  92  1  0.05677800  0.59845700  0.97804000  1
  C  93  1  0.14055000  0.65247000  0.00054000  1
  C  94  1  0.25259600  0.63692900  0.04272400  1
  C  95  1  0.27981000  0.56945600  0.06358500  1
  C  96  1  0.19102000  0.51712200  0.04178700  1
  C  100  1  0.39007300  0.55518400  0.10546500  1
  C  103  1  0.10255100  0.72450800  0.98670100  1
  C  106  1  0.96597600  0.28460800  0.95656400  1
  C  109  1  0.60191300  0.45619000  0.97409400  1
  H  25  1  0.13218600  0.01104700  0.73564600  1
  H  26  1  0.29654700  0.00733400  0.82562600  1
  H  27  1  0.41170300  0.01184500  0.06955800  1
  H  28  1  0.35992700  0.00420000  0.18450700  1
  H  29  1  0.94321400  0.99109600  0.13667300  1
  H  30  1  0.81576800  0.00379300  0.87866000  1
  H  31  1  0.04535300  0.13093200  0.99377700  1
  H  32  1  0.67470700  0.22267200  0.04678300  1
  H  33  1  0.56725100  0.11341200  0.05097400  1
  H  34  1  0.06464100  0.86751800  0.98243800  1
  H  35  1  0.58555300  0.86236700  0.03982000  1
  H  36  1  0.70778400  0.75817100  0.02632300  1
  H  39  1  0.32666000  0.96036600  0.95165400  1
  H  40  1  0.31930800  0.05048600  0.95274800  1
  H  42  1  0.63459100  0.98671700  0.08372000  1
  H  43  1  0.58943000  0.98968700  0.99556300  1
  H  45  1  0.04855800  0.94898200  0.25216300  1
  H  47  1  0.79251000  0.98022800  0.74873200  1
  H  49  1  0.00733200  0.25214300  0.05580800  1
  H  51  1  0.03712200  0.73945100  0.03157400  1
  H  58  1  0.87914500  0.08120500  0.45848900  1
  H  59  1  0.01907500  0.93875700  0.60190800  1
  H  60  1  0.66795200  0.05197600  0.64251200  1
  H  67  1  0.99621200  0.00102800  0.38380300  1
  H  68  1  0.41904900  0.96977200  0.38099000  1
  H  69  1  0.21970300  0.99137100  0.56712400  1
  H  71  1  0.54410500  0.97160300  0.48675200  1
  H  72  1  0.46493200  0.98173400  0.56154800  1
  H  74  1  0.28167200  0.94447500  0.28145900  1
  H  75  1  0.28092700  0.03476300  0.28776700  1
  H  77  1  0.91246900  0.91886000  0.70802400  1
  H  78  1  0.73963700  0.92874100  0.69456200  1
  H  80  1  0.68526800  0.15125400  0.48841500  1
  H  81  1  0.60381500  0.14107000  0.56255800  1
  H  88  1  0.80568600  0.54030600  0.99561600  1
  H  89  1  0.12172700  0.39764800  0.97128000  1
  H  90  1  0.71449900  0.33565000  0.95581600  1
  H  97  1  0.97586400  0.60978500  0.94730800  1
  H  98  1  0.31305300  0.67573400  0.05996700  1
  H  99  1  0.20651700  0.46882700  0.05969800  1
  H  101  1  0.43118600  0.59353800  0.13101800  1
  H  102  1  0.38989200  0.51087800  0.12969500  1
  H  104  1  0.09080100  0.73130700  0.93182900  1
  H  105  1  0.18497900  0.76000700  0.99807600  1
  H  107  1  0.07536600  0.27925600  0.94765400  1
  H  108  1  0.91381200  0.26174700  0.91299200  1
  H  110  1  0.57208400  0.50186400  0.98959400  1
  H  111  1  0.53604700  0.41887200  0.98289600  1
  N  44  1  0.10618300  0.99199700  0.24532200  1
  N  46  1  0.86515200  0.01568100  0.74549400  1
  N  48  1  0.92842200  0.25103900  0.02154700  1
  N  50  1  0.95856700  0.73838300  0.99916900  1
