# generated using pymatgen
data_ZnH14C23NO4
_symmetry_space_group_name_H-M   'P 1'
_cell_length_a   27.89716000
_cell_length_b   27.89560000
_cell_length_c   27.89582000
_cell_angle_alpha   89.99954000
_cell_angle_beta   90.00000000
_cell_angle_gamma   90.00000000
_symmetry_Int_Tables_number   1
_chemical_formula_structural   ZnH14C23NO4
_chemical_formula_sum   'Zn12 H168 C276 N12 O48'
_cell_volume   21708.75075003
_cell_formula_units_Z   12
loop_
 _symmetry_equiv_pos_site_id
 _symmetry_equiv_pos_as_xyz
  1  'x, y, z'
loop_
 _atom_site_type_symbol
 _atom_site_label
 _atom_site_symmetry_multiplicity
 _atom_site_fract_x
 _atom_site_fract_y
 _atom_site_fract_z
 _atom_site_occupancy
  Zn  Zn0  1  0.99999000  0.49988000  0.70098000  1
  Zn  Zn1  1  0.99999000  0.50012000  0.29901000  1
  Zn  Zn2  1  0.70099000  0.00000000  0.50000000  1
  Zn  Zn3  1  0.29901000  0.00000000  0.50000000  1
  Zn  Zn4  1  0.49998000  0.70099000  0.99967000  1
  Zn  Zn5  1  0.49998000  0.29901000  0.00033000  1
  Zn  Zn6  1  0.00001000  0.49966000  0.79901000  1
  Zn  Zn7  1  0.00001000  0.50034000  0.20099000  1
  Zn  Zn8  1  0.50003000  0.20098000  0.00011000  1
  Zn  Zn9  1  0.50003000  0.79901000  0.99989000  1
  Zn  Zn10  1  0.20099000  0.00000000  0.50000000  1
  Zn  Zn11  1  0.79901000  0.00000000  0.50000000  1
  H  H12  1  0.10808000  0.39084000  0.82603000  1
  H  H13  1  0.17098000  0.32765000  0.82678000  1
  H  H14  1  0.02365000  0.57011000  0.62419000  1
  H  H15  1  0.02518000  0.57326000  0.53419000  1
  H  H16  1  0.89193000  0.60909000  0.82604000  1
  H  H17  1  0.82905000  0.67229000  0.82675000  1
  H  H18  1  0.97635000  0.42982000  0.62414000  1
  H  H19  1  0.97483000  0.42672000  0.53415000  1
  H  H20  1  0.89193000  0.39091000  0.17396000  1
  H  H21  1  0.82905000  0.32771000  0.17324000  1
  H  H22  1  0.97635000  0.57018000  0.37585000  1
  H  H23  1  0.97483000  0.57327000  0.46584000  1
  H  H24  1  0.10808000  0.60916000  0.17396000  1
  H  H25  1  0.17098000  0.67235000  0.17322000  1
  H  H26  1  0.02365000  0.42988000  0.37581000  1
  H  H27  1  0.02518000  0.42674000  0.46581000  1
  H  H28  1  0.82735000  0.10865000  0.39088000  1
  H  H29  1  0.82747000  0.17120000  0.32727000  1
  H  H30  1  0.82735000  0.89135000  0.60911000  1
  H  H31  1  0.82747000  0.82880000  0.67273000  1
  H  H32  1  0.17269000  0.89137000  0.39086000  1
  H  H33  1  0.17256000  0.82883000  0.32725000  1
  H  H34  1  0.17269000  0.10863000  0.60913000  1
  H  H35  1  0.17256000  0.17117000  0.67275000  1
  H  H36  1  0.39080000  0.82604000  0.10820000  1
  H  H37  1  0.32762000  0.82678000  0.17108000  1
  H  H38  1  0.57014000  0.62418000  0.02362000  1
  H  H39  1  0.57327000  0.53419000  0.02517000  1
  H  H40  1  0.60923000  0.82604000  0.89173000  1
  H  H41  1  0.67243000  0.82677000  0.82884000  1
  H  H42  1  0.42985000  0.62415000  0.97633000  1
  H  H43  1  0.42674000  0.53416000  0.97482000  1
  H  H44  1  0.39080000  0.17396000  0.89180000  1
  H  H45  1  0.32762000  0.17321000  0.82892000  1
  H  H46  1  0.57014000  0.37582000  0.97638000  1
  H  H47  1  0.57327000  0.46581000  0.97483000  1
  H  H48  1  0.60923000  0.17395000  0.10827000  1
  H  H49  1  0.67243000  0.17323000  0.17115000  1
  H  H50  1  0.42985000  0.37585000  0.02367000  1
  H  H51  1  0.42674000  0.46583000  0.02517000  1
  H  H52  1  0.89113000  0.60873000  0.67255000  1
  H  H53  1  0.82750000  0.67130000  0.67245000  1
  H  H54  1  0.10891000  0.39119000  0.67255000  1
  H  H55  1  0.17255000  0.32862000  0.67247000  1
  H  H56  1  0.89113000  0.39127000  0.32744000  1
  H  H57  1  0.82750000  0.32870000  0.32754000  1
  H  H58  1  0.10891000  0.60880000  0.32744000  1
  H  H59  1  0.17255000  0.67137000  0.32753000  1
  H  H60  1  0.60894000  0.32743000  0.10900000  1
  H  H61  1  0.67149000  0.32755000  0.17262000  1
  H  H62  1  0.39108000  0.32743000  0.89105000  1
  H  H63  1  0.32853000  0.32753000  0.82742000  1
  H  H64  1  0.39108000  0.67256000  0.10895000  1
  H  H65  1  0.32853000  0.67247000  0.17257000  1
  H  H66  1  0.60894000  0.67257000  0.89099000  1
  H  H67  1  0.67149000  0.67245000  0.82738000  1
  H  H68  1  0.32616000  0.89104000  0.39163000  1
  H  H69  1  0.32686000  0.82783000  0.32874000  1
  H  H70  1  0.32616000  0.10896000  0.60836000  1
  H  H71  1  0.32686000  0.17216000  0.67126000  1
  H  H72  1  0.67387000  0.89100000  0.60832000  1
  H  H73  1  0.67317000  0.82779000  0.67122000  1
  H  H74  1  0.87584000  0.07003000  0.52399000  1
  H  H75  1  0.96583000  0.07314000  0.52554000  1
  H  H76  1  0.67387000  0.10900000  0.39167000  1
  H  H77  1  0.67317000  0.17221000  0.32878000  1
  H  H78  1  0.87584000  0.92997000  0.47600000  1
  H  H79  1  0.96583000  0.92686000  0.47446000  1
  H  H80  1  0.89106000  0.60900000  0.17257000  1
  H  H81  1  0.82850000  0.67261000  0.17245000  1
  H  H82  1  0.10892000  0.39105000  0.17256000  1
  H  H83  1  0.17147000  0.32743000  0.17247000  1
  H  H84  1  0.10892000  0.60894000  0.82743000  1
  H  H85  1  0.17147000  0.67257000  0.82753000  1
  H  H86  1  0.89106000  0.39100000  0.82742000  1
  H  H87  1  0.82850000  0.32738000  0.82755000  1
  H  H88  1  0.17384000  0.89163000  0.60895000  1
  H  H89  1  0.17314000  0.82873000  0.67216000  1
  H  H90  1  0.37582000  0.97676000  0.42972000  1
  H  H91  1  0.46581000  0.97525000  0.42659000  1
  H  H92  1  0.17384000  0.10837000  0.39104000  1
  H  H93  1  0.17314000  0.17127000  0.32784000  1
  H  H94  1  0.37582000  0.02324000  0.57028000  1
  H  H95  1  0.46581000  0.02475000  0.57341000  1
  H  H96  1  0.82612000  0.10832000  0.60901000  1
  H  H97  1  0.82682000  0.17121000  0.67222000  1
  H  H98  1  0.62416000  0.02399000  0.42997000  1
  H  H99  1  0.53417000  0.02553000  0.42686000  1
  H  H100  1  0.82612000  0.89168000  0.39098000  1
  H  H101  1  0.82682000  0.82879000  0.32778000  1
  H  H102  1  0.62416000  0.97601000  0.57003000  1
  H  H103  1  0.53417000  0.97447000  0.57314000  1
  H  H104  1  0.60888000  0.17256000  0.89126000  1
  H  H105  1  0.67250000  0.17246000  0.82869000  1
  H  H106  1  0.39109000  0.17255000  0.10880000  1
  H  H107  1  0.32745000  0.17247000  0.17137000  1
  H  H108  1  0.60888000  0.82744000  0.10873000  1
  H  H109  1  0.67250000  0.82754000  0.17131000  1
  H  H110  1  0.39109000  0.82745000  0.89119000  1
  H  H111  1  0.32745000  0.82753000  0.82862000  1
  H  H112  1  0.10920000  0.39180000  0.32604000  1
  H  H113  1  0.17238000  0.32892000  0.32678000  1
  H  H114  1  0.92986000  0.47638000  0.12418000  1
  H  H115  1  0.92673000  0.47483000  0.03419000  1
  H  H116  1  0.89078000  0.60828000  0.32605000  1
  H  H117  1  0.82758000  0.67116000  0.32677000  1
  H  H118  1  0.07015000  0.52367000  0.12415000  1
  H  H119  1  0.07326000  0.52518000  0.03417000  1
  H  H120  1  0.10920000  0.60819000  0.67396000  1
  H  H121  1  0.17238000  0.67107000  0.67322000  1
  H  H122  1  0.92986000  0.52362000  0.87582000  1
  H  H123  1  0.92673000  0.52517000  0.96581000  1
  H  H124  1  0.89078000  0.39172000  0.67395000  1
  H  H125  1  0.82758000  0.32884000  0.67323000  1
  H  H126  1  0.07015000  0.47633000  0.87584000  1
  H  H127  1  0.07326000  0.47482000  0.96583000  1
  H  H128  1  0.39192000  0.67396000  0.89084000  1
  H  H129  1  0.32902000  0.67322000  0.82765000  1
  H  H130  1  0.47635000  0.87581000  0.07012000  1
  H  H131  1  0.47483000  0.96581000  0.07326000  1
  H  H132  1  0.60807000  0.67395000  0.10910000  1
  H  H133  1  0.67095000  0.67324000  0.17230000  1
  H  H134  1  0.52366000  0.87585000  0.92982000  1
  H  H135  1  0.52519000  0.96584000  0.92672000  1
  H  H136  1  0.60807000  0.32604000  0.89090000  1
  H  H137  1  0.67095000  0.32676000  0.82770000  1
  H  H138  1  0.52366000  0.12415000  0.07017000  1
  H  H139  1  0.52519000  0.03416000  0.07327000  1
  H  H140  1  0.39192000  0.32604000  0.10915000  1
  H  H141  1  0.32902000  0.32678000  0.17234000  1
  H  H142  1  0.47635000  0.12419000  0.92988000  1
  H  H143  1  0.47483000  0.03419000  0.92674000  1
  H  H144  1  0.67265000  0.10913000  0.60863000  1
  H  H145  1  0.67252000  0.17275000  0.67118000  1
  H  H146  1  0.67265000  0.89087000  0.39136000  1
  H  H147  1  0.67252000  0.82725000  0.32882000  1
  H  H148  1  0.32731000  0.10913000  0.39137000  1
  H  H149  1  0.32744000  0.17274000  0.32883000  1
  H  H150  1  0.12417000  0.92972000  0.52326000  1
  H  H151  1  0.03418000  0.92660000  0.52477000  1
  H  H152  1  0.32731000  0.89087000  0.60863000  1
  H  H153  1  0.32744000  0.82725000  0.67117000  1
  H  H154  1  0.12417000  0.07027000  0.47674000  1
  H  H155  1  0.03418000  0.07340000  0.47523000  1
  H  H156  1  0.24989000  0.31314000  0.81268000  1
  H  H157  1  0.75013000  0.68682000  0.81265000  1
  H  H158  1  0.75013000  0.31318000  0.18735000  1
  H  H159  1  0.24989000  0.68686000  0.18732000  1
  H  H160  1  0.81304000  0.24989000  0.31297000  1
  H  H161  1  0.81304000  0.75011000  0.68702000  1
  H  H162  1  0.18699000  0.75016000  0.31294000  1
  H  H163  1  0.18699000  0.24984000  0.68706000  1
  H  H164  1  0.31281000  0.81289000  0.24984000  1
  H  H165  1  0.68722000  0.81285000  0.75011000  1
  H  H166  1  0.31281000  0.18711000  0.75016000  1
  H  H167  1  0.68722000  0.18715000  0.24989000  1
  H  H168  1  0.74987000  0.68735000  0.18683000  1
  H  H169  1  0.25012000  0.31268000  0.18685000  1
  H  H170  1  0.25012000  0.68732000  0.81315000  1
  H  H171  1  0.74987000  0.31265000  0.81317000  1
  H  H172  1  0.18720000  0.74984000  0.68711000  1
  H  H173  1  0.18720000  0.25016000  0.31289000  1
  H  H174  1  0.81278000  0.25011000  0.68714000  1
  H  H175  1  0.81278000  0.74989000  0.31285000  1
  H  H176  1  0.68695000  0.18703000  0.74988000  1
  H  H177  1  0.31302000  0.18706000  0.25016000  1
  H  H178  1  0.68695000  0.81297000  0.25012000  1
  H  H179  1  0.31302000  0.81294000  0.74984000  1
  C  C180  1  0.12268000  0.37702000  0.79267000  1
  C  C181  1  0.15806000  0.34186000  0.79284000  1
  C  C182  1  0.01305000  0.53950000  0.60240000  1
  C  C183  1  0.01347000  0.54090000  0.55256000  1
  C  C184  1  0.87735000  0.62289000  0.79266000  1
  C  C185  1  0.84197000  0.65807000  0.79282000  1
  C  C186  1  0.98695000  0.46045000  0.60238000  1
  C  C187  1  0.98653000  0.45907000  0.55253000  1
  C  C188  1  0.87735000  0.37710000  0.20733000  1
  C  C189  1  0.84197000  0.34193000  0.20718000  1
  C  C190  1  0.98695000  0.53955000  0.39762000  1
  C  C191  1  0.98653000  0.54092000  0.44747000  1
  C  C192  1  0.12268000  0.62298000  0.20732000  1
  C  C193  1  0.15806000  0.65814000  0.20716000  1
  C  C194  1  0.01305000  0.46050000  0.39759000  1
  C  C195  1  0.01347000  0.45910000  0.44744000  1
  C  C196  1  0.79381000  0.12291000  0.37707000  1
  C  C197  1  0.79366000  0.15817000  0.34169000  1
  C  C198  1  0.79381000  0.87709000  0.62292000  1
  C  C199  1  0.79366000  0.84183000  0.65830000  1
  C  C200  1  0.20622000  0.87711000  0.37704000  1
  C  C201  1  0.20638000  0.84186000  0.34167000  1
  C  C202  1  0.20622000  0.12288000  0.62295000  1
  C  C203  1  0.20638000  0.15814000  0.65833000  1
  C  C204  1  0.37698000  0.79267000  0.12277000  1
  C  C205  1  0.34180000  0.79283000  0.15816000  1
  C  C206  1  0.53953000  0.60240000  0.01302000  1
  C  C207  1  0.54091000  0.55255000  0.01346000  1
  C  C208  1  0.62307000  0.79268000  0.87715000  1
  C  C209  1  0.65824000  0.79282000  0.84177000  1
  C  C210  1  0.46047000  0.60238000  0.98693000  1
  C  C211  1  0.45909000  0.55254000  0.98652000  1
  C  C212  1  0.37698000  0.20733000  0.87723000  1
  C  C213  1  0.34180000  0.20716000  0.84184000  1
  C  C214  1  0.53953000  0.39760000  0.98697000  1
  C  C215  1  0.54091000  0.44744000  0.98653000  1
  C  C216  1  0.62307000  0.20732000  0.12285000  1
  C  C217  1  0.65824000  0.20717000  0.15823000  1
  C  C218  1  0.46047000  0.39761000  0.01307000  1
  C  C219  1  0.45909000  0.44746000  0.01347000  1
  C  C220  1  0.87734000  0.62300000  0.70610000  1
  C  C221  1  0.84195000  0.65826000  0.70626000  1
  C  C222  1  0.12271000  0.37692000  0.70609000  1
  C  C223  1  0.15810000  0.34167000  0.70627000  1
  C  C224  1  0.87734000  0.37700000  0.29390000  1
  C  C225  1  0.84195000  0.34174000  0.29374000  1
  C  C226  1  0.12271000  0.62308000  0.29391000  1
  C  C227  1  0.15810000  0.65833000  0.29373000  1
  C  C228  1  0.62319000  0.29389000  0.12282000  1
  C  C229  1  0.65845000  0.29373000  0.15821000  1
  C  C230  1  0.37683000  0.29388000  0.87725000  1
  C  C231  1  0.34158000  0.29371000  0.84184000  1
  C  C232  1  0.37683000  0.70611000  0.12275000  1
  C  C233  1  0.34158000  0.70629000  0.15815000  1
  C  C234  1  0.62319000  0.70611000  0.87718000  1
  C  C235  1  0.65845000  0.70627000  0.84179000  1
  C  C236  1  0.29279000  0.87723000  0.37704000  1
  C  C237  1  0.29293000  0.84205000  0.34166000  1
  C  C238  1  0.29279000  0.12277000  0.62295000  1
  C  C239  1  0.29293000  0.15795000  0.65833000  1
  C  C240  1  0.70724000  0.87719000  0.62292000  1
  C  C241  1  0.70710000  0.84201000  0.65830000  1
  C  C242  1  0.89762000  0.03946000  0.51324000  1
  C  C243  1  0.94746000  0.04084000  0.51367000  1
  C  C244  1  0.70724000  0.12281000  0.37708000  1
  C  C245  1  0.70710000  0.15799000  0.34170000  1
  C  C246  1  0.89762000  0.96054000  0.48676000  1
  C  C247  1  0.94746000  0.95915000  0.48632000  1
  C  C248  1  0.87680000  0.62281000  0.20612000  1
  C  C249  1  0.84155000  0.65820000  0.20627000  1
  C  C250  1  0.12316000  0.37725000  0.20611000  1
  C  C251  1  0.15842000  0.34185000  0.20628000  1
  C  C252  1  0.12316000  0.62275000  0.79388000  1
  C  C253  1  0.15842000  0.65815000  0.79371000  1
  C  C254  1  0.87680000  0.37718000  0.79388000  1
  C  C255  1  0.84155000  0.34180000  0.79373000  1
  C  C256  1  0.20721000  0.87704000  0.62276000  1
  C  C257  1  0.20707000  0.84166000  0.65794000  1
  C  C258  1  0.39760000  0.98718000  0.46040000  1
  C  C259  1  0.44745000  0.98677000  0.45901000  1
  C  C260  1  0.20721000  0.12296000  0.37723000  1
  C  C261  1  0.20707000  0.15834000  0.34205000  1
  C  C262  1  0.39760000  0.01282000  0.53960000  1
  C  C263  1  0.44745000  0.01323000  0.54099000  1
  C  C264  1  0.79275000  0.12292000  0.62281000  1
  C  C265  1  0.79290000  0.15830000  0.65799000  1
  C  C266  1  0.60238000  0.01324000  0.46053000  1
  C  C267  1  0.55254000  0.01367000  0.45915000  1
  C  C268  1  0.79275000  0.87708000  0.37718000  1
  C  C269  1  0.79290000  0.84170000  0.34200000  1
  C  C270  1  0.60238000  0.98676000  0.53946000  1
  C  C271  1  0.55254000  0.98633000  0.54084000  1
  C  C272  1  0.62267000  0.20610000  0.87699000  1
  C  C273  1  0.65805000  0.20626000  0.84173000  1
  C  C274  1  0.37729000  0.20609000  0.12307000  1
  C  C275  1  0.34190000  0.20627000  0.15832000  1
  C  C276  1  0.62267000  0.79390000  0.12300000  1
  C  C277  1  0.65805000  0.79373000  0.15826000  1
  C  C278  1  0.37729000  0.79391000  0.87692000  1
  C  C279  1  0.34190000  0.79373000  0.84167000  1
  C  C280  1  0.12302000  0.37723000  0.29266000  1
  C  C281  1  0.15820000  0.34184000  0.29283000  1
  C  C282  1  0.96047000  0.48698000  0.10240000  1
  C  C283  1  0.95909000  0.48654000  0.05255000  1
  C  C284  1  0.87694000  0.62285000  0.29268000  1
  C  C285  1  0.84176000  0.65823000  0.29283000  1
  C  C286  1  0.03953000  0.51307000  0.10239000  1
  C  C287  1  0.04091000  0.51348000  0.05254000  1
  C  C288  1  0.12302000  0.62277000  0.70733000  1
  C  C289  1  0.15820000  0.65815000  0.70717000  1
  C  C290  1  0.96047000  0.51302000  0.89760000  1
  C  C291  1  0.95909000  0.51346000  0.94744000  1
  C  C292  1  0.87694000  0.37715000  0.70731000  1
  C  C293  1  0.84176000  0.34177000  0.70717000  1
  C  C294  1  0.03953000  0.48693000  0.89761000  1
  C  C295  1  0.04091000  0.48652000  0.94746000  1
  C  C296  1  0.37732000  0.70733000  0.87703000  1
  C  C297  1  0.34194000  0.70716000  0.84186000  1
  C  C298  1  0.48696000  0.89760000  0.03950000  1
  C  C299  1  0.48654000  0.94744000  0.04090000  1
  C  C300  1  0.62265000  0.70733000  0.12290000  1
  C  C301  1  0.65803000  0.70717000  0.15808000  1
  C  C302  1  0.51306000  0.89762000  0.96045000  1
  C  C303  1  0.51348000  0.94746000  0.95907000  1
  C  C304  1  0.62265000  0.29267000  0.87710000  1
  C  C305  1  0.65803000  0.29283000  0.84192000  1
  C  C306  1  0.51306000  0.10238000  0.03955000  1
  C  C307  1  0.51348000  0.05253000  0.04092000  1
  C  C308  1  0.37732000  0.29267000  0.12297000  1
  C  C309  1  0.34194000  0.29284000  0.15813000  1
  C  C310  1  0.48696000  0.10240000  0.96049000  1
  C  C311  1  0.48654000  0.05255000  0.95910000  1
  C  C312  1  0.70618000  0.12294000  0.62290000  1
  C  C313  1  0.70634000  0.15832000  0.65816000  1
  C  C314  1  0.70618000  0.87706000  0.37709000  1
  C  C315  1  0.70634000  0.84168000  0.34184000  1
  C  C316  1  0.29378000  0.12295000  0.37711000  1
  C  C317  1  0.29363000  0.15833000  0.34186000  1
  C  C318  1  0.10240000  0.96040000  0.51283000  1
  C  C319  1  0.05255000  0.95901000  0.51324000  1
  C  C320  1  0.29378000  0.87705000  0.62289000  1
  C  C321  1  0.29363000  0.84167000  0.65814000  1
  C  C322  1  0.10240000  0.03960000  0.48717000  1
  C  C323  1  0.05255000  0.04099000  0.48675000  1
  C  C324  1  0.00000000  0.49999000  0.52650000  1
  C  C325  1  0.00000000  0.50001000  0.47350000  1
  C  C326  1  0.52649000  0.00000000  0.50000000  1
  C  C327  1  0.47349000  0.00000000  0.50000000  1
  C  C328  1  0.50001000  0.52650000  0.00000000  1
  C  C329  1  0.50001000  0.47350000  0.00000000  1
  C  C330  1  0.00000000  0.49999000  0.97350000  1
  C  C331  1  0.00000000  0.50000000  0.02650000  1
  C  C332  1  0.50001000  0.02650000  0.00001000  1
  C  C333  1  0.50001000  0.97350000  0.99999000  1
  C  C334  1  0.02650000  0.00000000  0.50000000  1
  C  C335  1  0.97351000  0.00000000  0.50000000  1
  C  C336  1  0.06642000  0.43282000  0.74986000  1
  C  C337  1  0.10456000  0.39502000  0.74938000  1
  C  C338  1  0.17649000  0.32344000  0.74961000  1
  C  C339  1  0.21407000  0.28591000  0.74981000  1
  C  C340  1  0.93364000  0.56705000  0.74984000  1
  C  C341  1  0.89548000  0.60488000  0.74938000  1
  C  C342  1  0.82354000  0.67650000  0.74960000  1
  C  C343  1  0.78596000  0.71404000  0.74978000  1
  C  C344  1  0.93364000  0.43295000  0.25015000  1
  C  C345  1  0.89548000  0.39512000  0.25062000  1
  C  C346  1  0.82354000  0.32350000  0.25040000  1
  C  C347  1  0.78596000  0.28596000  0.25022000  1
  C  C348  1  0.06642000  0.56717000  0.25014000  1
  C  C349  1  0.10456000  0.60498000  0.25062000  1
  C  C350  1  0.17649000  0.67656000  0.25038000  1
  C  C351  1  0.21407000  0.71409000  0.25019000  1
  C  C352  1  0.75015000  0.06700000  0.43334000  1
  C  C353  1  0.75053000  0.10481000  0.39521000  1
  C  C354  1  0.75032000  0.17643000  0.32329000  1
  C  C355  1  0.75019000  0.21406000  0.28578000  1
  C  C356  1  0.75015000  0.93300000  0.56666000  1
  C  C357  1  0.75053000  0.89519000  0.60479000  1
  C  C358  1  0.75032000  0.82357000  0.67671000  1
  C  C359  1  0.75019000  0.78594000  0.71422000  1
  C  C360  1  0.24984000  0.93305000  0.43327000  1
  C  C361  1  0.24951000  0.89523000  0.39517000  1
  C  C362  1  0.24971000  0.82361000  0.32325000  1
  C  C363  1  0.24984000  0.78599000  0.28574000  1
  C  C364  1  0.24984000  0.06695000  0.56672000  1
  C  C365  1  0.24951000  0.10477000  0.60483000  1
  C  C366  1  0.24971000  0.17639000  0.67675000  1
  C  C367  1  0.24984000  0.21401000  0.71426000  1
  C  C368  1  0.43284000  0.74987000  0.06644000  1
  C  C369  1  0.39498000  0.74939000  0.10460000  1
  C  C370  1  0.32334000  0.74962000  0.17659000  1
  C  C371  1  0.28579000  0.74981000  0.21419000  1
  C  C372  1  0.56719000  0.74987000  0.93337000  1
  C  C373  1  0.60507000  0.74941000  0.89530000  1
  C  C374  1  0.67669000  0.74960000  0.82335000  1
  C  C375  1  0.71424000  0.74978000  0.78576000  1
  C  C376  1  0.43284000  0.25013000  0.93356000  1
  C  C377  1  0.39498000  0.25061000  0.89539000  1
  C  C378  1  0.32334000  0.25038000  0.82341000  1
  C  C379  1  0.28579000  0.25019000  0.78580000  1
  C  C380  1  0.56719000  0.25013000  0.06663000  1
  C  C381  1  0.60507000  0.25059000  0.10470000  1
  C  C382  1  0.67669000  0.25040000  0.17664000  1
  C  C383  1  0.71424000  0.25022000  0.21424000  1
  C  C384  1  0.93281000  0.56663000  0.24987000  1
  C  C385  1  0.89493000  0.60470000  0.24941000  1
  C  C386  1  0.82331000  0.67664000  0.24960000  1
  C  C387  1  0.78576000  0.71424000  0.24978000  1
  C  C388  1  0.06716000  0.43357000  0.24987000  1
  C  C389  1  0.10502000  0.39540000  0.24939000  1
  C  C390  1  0.17666000  0.32341000  0.24962000  1
  C  C391  1  0.21421000  0.28581000  0.24981000  1
  C  C392  1  0.06716000  0.56643000  0.75013000  1
  C  C393  1  0.10502000  0.60460000  0.75061000  1
  C  C394  1  0.17666000  0.67659000  0.75038000  1
  C  C395  1  0.21421000  0.71419000  0.75019000  1
  C  C396  1  0.93281000  0.43337000  0.75013000  1
  C  C397  1  0.89493000  0.39530000  0.75059000  1
  C  C398  1  0.82331000  0.32335000  0.75039000  1
  C  C399  1  0.78576000  0.28576000  0.75022000  1
  C  C400  1  0.25016000  0.93327000  0.56695000  1
  C  C401  1  0.25049000  0.89517000  0.60477000  1
  C  C402  1  0.25030000  0.82325000  0.67639000  1
  C  C403  1  0.25016000  0.78574000  0.71401000  1
  C  C404  1  0.25016000  0.06672000  0.43305000  1
  C  C405  1  0.25049000  0.10483000  0.39523000  1
  C  C406  1  0.25030000  0.17675000  0.32361000  1
  C  C407  1  0.25016000  0.21426000  0.28599000  1
  C  C408  1  0.74984000  0.06667000  0.56700000  1
  C  C409  1  0.74947000  0.10480000  0.60481000  1
  C  C410  1  0.74967000  0.17672000  0.67643000  1
  C  C411  1  0.74980000  0.21422000  0.71405000  1
  C  C412  1  0.74984000  0.93333000  0.43300000  1
  C  C413  1  0.74947000  0.89520000  0.39519000  1
  C  C414  1  0.74967000  0.82328000  0.32357000  1
  C  C415  1  0.74980000  0.78578000  0.28595000  1
  C  C416  1  0.56637000  0.24984000  0.93294000  1
  C  C417  1  0.60452000  0.24938000  0.89511000  1
  C  C418  1  0.67645000  0.24960000  0.82349000  1
  C  C419  1  0.71404000  0.24978000  0.78595000  1
  C  C420  1  0.43358000  0.24985000  0.06717000  1
  C  C421  1  0.39544000  0.24938000  0.10497000  1
  C  C422  1  0.32351000  0.24962000  0.17656000  1
  C  C423  1  0.28593000  0.24981000  0.21409000  1
  C  C424  1  0.56637000  0.75015000  0.06705000  1
  C  C425  1  0.60452000  0.75062000  0.10488000  1
  C  C426  1  0.67645000  0.75040000  0.17651000  1
  C  C427  1  0.71404000  0.75022000  0.21404000  1
  C  C428  1  0.43358000  0.75014000  0.93283000  1
  C  C429  1  0.39544000  0.75062000  0.89502000  1
  C  C430  1  0.32351000  0.75038000  0.82344000  1
  C  C431  1  0.28593000  0.75019000  0.78591000  1
  C  C432  1  0.24991000  0.28551000  0.78518000  1
  C  C433  1  0.75012000  0.71445000  0.78514000  1
  C  C434  1  0.75012000  0.28555000  0.21486000  1
  C  C435  1  0.24991000  0.71449000  0.21482000  1
  C  C436  1  0.78548000  0.24996000  0.28541000  1
  C  C437  1  0.78548000  0.75004000  0.71459000  1
  C  C438  1  0.21455000  0.75008000  0.28537000  1
  C  C439  1  0.21455000  0.24991000  0.71462000  1
  C  C440  1  0.28524000  0.78532000  0.24992000  1
  C  C441  1  0.71479000  0.78528000  0.75003000  1
  C  C442  1  0.28524000  0.21468000  0.75008000  1
  C  C443  1  0.71479000  0.21472000  0.24996000  1
  C  C444  1  0.74988000  0.71486000  0.21445000  1
  C  C445  1  0.25009000  0.28518000  0.21449000  1
  C  C446  1  0.25009000  0.71482000  0.78551000  1
  C  C447  1  0.74988000  0.28514000  0.78554000  1
  C  C448  1  0.21477000  0.74991000  0.71468000  1
  C  C449  1  0.21477000  0.25008000  0.28532000  1
  C  C450  1  0.78521000  0.25004000  0.71471000  1
  C  C451  1  0.78521000  0.74996000  0.28529000  1
  C  C452  1  0.71451000  0.21460000  0.74995000  1
  C  C453  1  0.28545000  0.21463000  0.25008000  1
  C  C454  1  0.71451000  0.78540000  0.25004000  1
  C  C455  1  0.28545000  0.78537000  0.74991000  1
  N  N456  1  0.00000000  0.49996000  0.62685000  1
  N  N457  1  0.00000000  0.50003000  0.37315000  1
  N  N458  1  0.62684000  0.00000000  0.50000000  1
  N  N459  1  0.37314000  0.00000000  0.50000000  1
  N  N460  1  0.50000000  0.62685000  0.99995000  1
  N  N461  1  0.50000000  0.37314000  0.00004000  1
  N  N462  1  0.00000000  0.49995000  0.87314000  1
  N  N463  1  0.00000000  0.50005000  0.12686000  1
  N  N464  1  0.50000000  0.12685000  0.00003000  1
  N  N465  1  0.50000000  0.87315000  0.99996000  1
  N  N466  1  0.12686000  0.00000000  0.50000000  1
  N  N467  1  0.87316000  0.00000000  0.50000000  1
  O  O468  1  0.05083000  0.44742000  0.70942000  1
  O  O469  1  0.94928000  0.55254000  0.70939000  1
  O  O470  1  0.94928000  0.44746000  0.29061000  1
  O  O471  1  0.05083000  0.55258000  0.29058000  1
  O  O472  1  0.70925000  0.05228000  0.44769000  1
  O  O473  1  0.70925000  0.94772000  0.55230000  1
  O  O474  1  0.29073000  0.94777000  0.44768000  1
  O  O475  1  0.29073000  0.05223000  0.55232000  1
  O  O476  1  0.44748000  0.70941000  0.05091000  1
  O  O477  1  0.55244000  0.70934000  0.94857000  1
  O  O478  1  0.44748000  0.29058000  0.94908000  1
  O  O479  1  0.55244000  0.29066000  0.05143000  1
  O  O480  1  0.94771000  0.55221000  0.79079000  1
  O  O481  1  0.05231000  0.44760000  0.79082000  1
  O  O482  1  0.94771000  0.44779000  0.20921000  1
  O  O483  1  0.05231000  0.55239000  0.20918000  1
  O  O484  1  0.55247000  0.20923000  0.05229000  1
  O  O485  1  0.44759000  0.20919000  0.94773000  1
  O  O486  1  0.44759000  0.79081000  0.05227000  1
  O  O487  1  0.55247000  0.79076000  0.94771000  1
  O  O488  1  0.20929000  0.94766000  0.44848000  1
  O  O489  1  0.20929000  0.05233000  0.55152000  1
  O  O490  1  0.79068000  0.94762000  0.55137000  1
  O  O491  1  0.79068000  0.05238000  0.44862000  1
  O  O492  1  0.94754000  0.55229000  0.29077000  1
  O  O493  1  0.05241000  0.44773000  0.29081000  1
  O  O494  1  0.05241000  0.55226000  0.70918000  1
  O  O495  1  0.94754000  0.44771000  0.70923000  1
  O  O496  1  0.29071000  0.94848000  0.55233000  1
  O  O497  1  0.29071000  0.05152000  0.44766000  1
  O  O498  1  0.70932000  0.05141000  0.55237000  1
  O  O499  1  0.70932000  0.94859000  0.44763000  1
  O  O500  1  0.55229000  0.29079000  0.94779000  1
  O  O501  1  0.44769000  0.29082000  0.05239000  1
  O  O502  1  0.55229000  0.70921000  0.05221000  1
  O  O503  1  0.44769000  0.70918000  0.94761000  1
  O  O504  1  0.05252000  0.44911000  0.20942000  1
  O  O505  1  0.94756000  0.55143000  0.20934000  1
  O  O506  1  0.05252000  0.55089000  0.79058000  1
  O  O507  1  0.94756000  0.44857000  0.79065000  1
  O  O508  1  0.44918000  0.79057000  0.94742000  1
  O  O509  1  0.55074000  0.79061000  0.05254000  1
  O  O510  1  0.55074000  0.20939000  0.94745000  1
  O  O511  1  0.44918000  0.20942000  0.05258000  1
  O  O512  1  0.79075000  0.05230000  0.55229000  1
  O  O513  1  0.79075000  0.94770000  0.44771000  1
  O  O514  1  0.20927000  0.05232000  0.44777000  1
  O  O515  1  0.20927000  0.94768000  0.55222000  1
