# generated using pymatgen
data_CoH40(C4N)8
_symmetry_space_group_name_H-M   'P 1'
_cell_length_a   11.76681647
_cell_length_b   11.92394000
_cell_length_c   18.04601361
_cell_angle_alpha   100.06422107
_cell_angle_beta   99.70779544
_cell_angle_gamma   117.87814401
_symmetry_Int_Tables_number   1
_chemical_formula_structural   CoH40(C4N)8
_chemical_formula_sum   'Co2 H80 C64 N16'
_cell_volume   2110.56427088
_cell_formula_units_Z   2
loop_
 _symmetry_equiv_pos_site_id
 _symmetry_equiv_pos_as_xyz
  1  'x, y, z'
loop_
 _atom_site_type_symbol
 _atom_site_label
 _atom_site_symmetry_multiplicity
 _atom_site_fract_x
 _atom_site_fract_y
 _atom_site_fract_z
 _atom_site_occupancy
  Co  Co0  1  0.62513000  0.87507000  0.25014000  1
  Co  Co1  1  0.37462000  0.12461000  0.74984000  1
  H  H2  1  0.39223000  0.69127000  0.10351000  1
  H  H3  1  0.31517000  0.94297000  0.98482000  1
  H  H4  1  0.49110000  0.13861000  0.10104000  1
  H  H5  1  0.59882000  0.09697000  0.21537000  1
  H  H6  1  0.28556000  0.62963000  0.94315000  1
  H  H7  1  0.19318000  0.70876000  0.92357000  1
  H  H8  1  0.10383000  0.41727000  0.91736000  1
  H  H9  1  0.99202000  0.47350000  0.88683000  1
  H  H10  1  0.00572000  0.66098000  0.98305000  1
  H  H11  1  0.12768000  0.73196000  0.07646000  1
  H  H12  1  0.70947000  0.91114000  0.10231000  1
  H  H13  1  0.66957000  0.54173000  0.98523000  1
  H  H14  1  0.60960000  0.46257000  0.10238000  1
  H  H15  1  0.61559000  0.61833000  0.21634000  1
  H  H16  1  0.65876000  0.81375000  0.94214000  1
  H  H17  1  0.73226000  0.71551000  0.92325000  1
  H  H18  1  0.81498000  0.00090000  0.91679000  1
  H  H19  1  0.89820000  0.91599000  0.88671000  1
  H  H20  1  0.97846000  0.82282000  0.98301000  1
  H  H21  1  0.94686000  0.84257000  0.07602000  1
  H  H22  1  0.81094000  0.10730000  0.39641000  1
  H  H23  1  0.55561000  0.18576000  0.51482000  1
  H  H24  1  0.35751000  0.00889000  0.39948000  1
  H  H25  1  0.40006000  0.90006000  0.28574000  1
  H  H26  1  0.87455000  0.21749000  0.55595000  1
  H  H27  1  0.79195000  0.30628000  0.57594000  1
  H  H28  1  0.08753000  0.39985000  0.58172000  1
  H  H29  1  0.02653000  0.50671000  0.61270000  1
  H  H30  1  0.83441000  0.48839000  0.51691000  1
  H  H31  1  0.76583000  0.36935000  0.42303000  1
  H  H32  1  0.58671000  0.79030000  0.39764000  1
  H  H33  1  0.95987000  0.82941000  0.51436000  1
  H  H34  1  0.04194000  0.89089000  0.39808000  1
  H  H35  1  0.88572000  0.88642000  0.28469000  1
  H  H36  1  0.68160000  0.83731000  0.55708000  1
  H  H37  1  0.78371000  0.76789000  0.57642000  1
  H  H38  1  0.49339000  0.68029000  0.58240000  1
  H  H39  1  0.58381000  0.60260000  0.61294000  1
  H  H40  1  0.68215000  0.52735000  0.51715000  1
  H  H41  1  0.65931000  0.55515000  0.42346000  1
  H  H42  1  0.60763000  0.30869000  0.89649000  1
  H  H43  1  0.68511000  0.05731000  0.01516000  1
  H  H44  1  0.50939000  0.86154000  0.89900000  1
  H  H45  1  0.40137000  0.90315000  0.78467000  1
  H  H46  1  0.71422000  0.37029000  0.05674000  1
  H  H47  1  0.80684000  0.29140000  0.07643000  1
  H  H48  1  0.89594000  0.58268000  0.08256000  1
  H  H49  1  0.00793000  0.52667000  0.11316000  1
  H  H50  1  0.99434000  0.33919000  0.01692000  1
  H  H51  1  0.87219000  0.26809000  0.92358000  1
  H  H52  1  0.29040000  0.08891000  0.89775000  1
  H  H53  1  0.33037000  0.45837000  0.01460000  1
  H  H54  1  0.39021000  0.53733000  0.89740000  1
  H  H55  1  0.38402000  0.38146000  0.78351000  1
  H  H56  1  0.34131000  0.18650000  0.05796000  1
  H  H57  1  0.26785000  0.28470000  0.07673000  1
  H  H58  1  0.18510000  0.99917000  0.08324000  1
  H  H59  1  0.10192000  0.08421000  0.11334000  1
  H  H60  1  0.02162000  0.17738000  0.01701000  1
  H  H61  1  0.05315000  0.15760000  0.92395000  1
  H  H62  1  0.18920000  0.89244000  0.60357000  1
  H  H63  1  0.44468000  0.81430000  0.48525000  1
  H  H64  1  0.64266000  0.99105000  0.60058000  1
  H  H65  1  0.60001000  0.09964000  0.71434000  1
  H  H66  1  0.12558000  0.78247000  0.44399000  1
  H  H67  1  0.20813000  0.69369000  0.42401000  1
  H  H68  1  0.91250000  0.60013000  0.41824000  1
  H  H69  1  0.97364000  0.49333000  0.38728000  1
  H  H70  1  0.16575000  0.51160000  0.48304000  1
  H  H71  1  0.23438000  0.63061000  0.57700000  1
  H  H72  1  0.41293000  0.20880000  0.60224000  1
  H  H73  1  0.04049000  0.17113000  0.48580000  1
  H  H74  1  0.95814000  0.10957000  0.60198000  1
  H  H75  1  0.11424000  0.11342000  0.71528000  1
  H  H76  1  0.31824000  0.16250000  0.44298000  1
  H  H77  1  0.21633000  0.23220000  0.42367000  1
  H  H78  1  0.50655000  0.31949000  0.41775000  1
  H  H79  1  0.41633000  0.39730000  0.38713000  1
  H  H80  1  0.31794000  0.47265000  0.48301000  1
  H  H81  1  0.34071000  0.44459000  0.57661000  1
  C  C82  1  0.41252000  0.78910000  0.10092000  1
  C  C83  1  0.34243000  0.80256000  0.03584000  1
  C  C84  1  0.36807000  0.92899000  0.03464000  1
  C  C85  1  0.46583000  0.03785000  0.09926000  1
  C  C86  1  0.52738000  0.01582000  0.16314000  1
  C  C87  1  0.23793000  0.67972000  0.97016000  1
  C  C88  1  0.04469000  0.45880000  0.93777000  1
  C  C89  1  0.05833000  0.63850000  0.02980000  1
  C  C90  1  0.68697000  0.81100000  0.10028000  1
  C  C91  1  0.69277000  0.73277000  0.03546000  1
  C  C92  1  0.66622000  0.60542000  0.03493000  1
  C  C93  1  0.63280000  0.56129000  0.10004000  1
  C  C94  1  0.63460000  0.64700000  0.16366000  1
  C  C95  1  0.73286000  0.79041000  0.96954000  1
  C  C96  1  0.89456000  0.98010000  0.93751000  1
  C  C97  1  0.97099000  0.89071000  0.02964000  1
  C  C98  1  0.71186000  0.08750000  0.39913000  1
  C  C99  1  0.69809000  0.15812000  0.46382000  1
  C  C100  1  0.56980000  0.13247000  0.46521000  1
  C  C101  1  0.45969000  0.03422000  0.40109000  1
  C  C102  1  0.48223000  0.97204000  0.33758000  1
  C  C103  1  0.82217000  0.26293000  0.52915000  1
  C  C104  1  0.04351000  0.45668000  0.56165000  1
  C  C105  1  0.85956000  0.43908000  0.46996000  1
  C  C106  1  0.68826000  0.81271000  0.39981000  1
  C  C107  1  0.76663000  0.80641000  0.46437000  1
  C  C108  1  0.89602000  0.83343000  0.46499000  1
  C  C109  1  0.94171000  0.86755000  0.40032000  1
  C  C110  1  0.85569000  0.86637000  0.33698000  1
  C  C111  1  0.70742000  0.76562000  0.52989000  1
  C  C112  1  0.51735000  0.60356000  0.56203000  1
  C  C113  1  0.61135000  0.53127000  0.47025000  1
  C  C114  1  0.58742000  0.21089000  0.89908000  1
  C  C115  1  0.65764000  0.19754000  0.96413000  1
  C  C116  1  0.63213000  0.07116000  0.96535000  1
  C  C117  1  0.53439000  0.96221000  0.90076000  1
  C  C118  1  0.47277000  0.98425000  0.83691000  1
  C  C119  1  0.76206000  0.32037000  0.02982000  1
  C  C120  1  0.95521000  0.54129000  0.06218000  1
  C  C121  1  0.94162000  0.36160000  0.97018000  1
  C  C122  1  0.31295000  0.18905000  0.89975000  1
  C  C123  1  0.30730000  0.26738000  0.96458000  1
  C  C124  1  0.33386000  0.39467000  0.96499000  1
  C  C125  1  0.36709000  0.43866000  0.89983000  1
  C  C126  1  0.36508000  0.35281000  0.83620000  1
  C  C127  1  0.26720000  0.20975000  0.03047000  1
  C  C128  1  0.10557000  0.02008000  0.06254000  1
  C  C129  1  0.02910000  0.10949000  0.97037000  1
  C  C130  1  0.28827000  0.91232000  0.60082000  1
  C  C131  1  0.30206000  0.84178000  0.53612000  1
  C  C132  1  0.43039000  0.86756000  0.53481000  1
  C  C133  1  0.54047000  0.96575000  0.59893000  1
  C  C134  1  0.51785000  0.02771000  0.66247000  1
  C  C135  1  0.17794000  0.73702000  0.47080000  1
  C  C136  1  0.95661000  0.54333000  0.43831000  1
  C  C137  1  0.14064000  0.56093000  0.53002000  1
  C  C138  1  0.31154000  0.18682000  0.60014000  1
  C  C139  1  0.23337000  0.19355000  0.53570000  1
  C  C140  1  0.10411000  0.16685000  0.53513000  1
  C  C141  1  0.05829000  0.13264000  0.59975000  1
  C  C142  1  0.14421000  0.13348000  0.66299000  1
  C  C143  1  0.29254000  0.23431000  0.47017000  1
  C  C144  1  0.48271000  0.39631000  0.43808000  1
  C  C145  1  0.38871000  0.46860000  0.52985000  1
  N  N146  1  0.50231000  0.89316000  0.16600000  1
  N  N147  1  0.13622000  0.58444000  0.99953000  1
  N  N148  1  0.66221000  0.77220000  0.16585000  1
  N  N149  1  0.86330000  0.91469000  0.99903000  1
  N  N150  1  0.60657000  0.99701000  0.33451000  1
  N  N151  1  0.91723000  0.36439000  0.49968000  1
  N  N152  1  0.72865000  0.83858000  0.33469000  1
  N  N153  1  0.58326000  0.63533000  0.50028000  1
  N  N154  1  0.49765000  0.10683000  0.83403000  1
  N  N155  1  0.86375000  0.41565000  0.00046000  1
  N  N156  1  0.33754000  0.22768000  0.83413000  1
  N  N157  1  0.13680000  0.08549000  0.00100000  1
  N  N158  1  0.39348000  0.00266000  0.66548000  1
  N  N159  1  0.08292000  0.63561000  0.50030000  1
  N  N160  1  0.27111000  0.16094000  0.66523000  1
  N  N161  1  0.41675000  0.36455000  0.49979000  1
