# generated using pymatgen
data_Cu2NiH36C30(N3O5)2
_symmetry_space_group_name_H-M   'P 1'
_cell_length_a   19.56721590
_cell_length_b   19.62339000
_cell_length_c   29.51479000
_cell_angle_alpha   90.03796000
_cell_angle_beta   90.00413999
_cell_angle_gamma   119.82943429
_symmetry_Int_Tables_number   1
_chemical_formula_structural   Cu2NiH36C30(N3O5)2
_chemical_formula_sum   'Cu12 Ni6 H216 C180 N36 O60'
_cell_volume   9831.43999393
_cell_formula_units_Z   6
loop_
 _symmetry_equiv_pos_site_id
 _symmetry_equiv_pos_as_xyz
  1  'x, y, z'
loop_
 _atom_site_type_symbol
 _atom_site_label
 _atom_site_symmetry_multiplicity
 _atom_site_fract_x
 _atom_site_fract_y
 _atom_site_fract_z
 _atom_site_occupancy
  Cu  Cu0  1  0.36264000  0.67347000  0.67004000  1
  Cu  Cu1  1  0.24518000  0.56912000  0.50389000  1
  Cu  Cu2  1  0.32708000  0.68977000  0.33735000  1
  Cu  Cu3  1  0.42943000  0.67547000  0.17058000  1
  Cu  Cu4  1  0.31052000  0.63715000  0.00357000  1
  Cu  Cu5  1  0.32376000  0.75460000  0.83691000  1
  Cu  Cu6  1  0.67357000  0.36279000  0.33021000  1
  Cu  Cu7  1  0.56878000  0.24445000  0.49599000  1
  Cu  Cu8  1  0.68944000  0.32753000  0.66262000  1
  Cu  Cu9  1  0.67608000  0.43007000  0.82969000  1
  Cu  Cu10  1  0.63688000  0.31033000  0.99637000  1
  Cu  Cu11  1  0.75440000  0.32380000  0.16316000  1
  Ni  Ni12  1  0.48557000  0.51437000  0.75974000  1
  Ni  Ni13  1  0.48561000  0.97113000  0.42644000  1
  Ni  Ni14  1  0.02893000  0.51458000  0.09299000  1
  Ni  Ni15  1  0.51427000  0.48539000  0.24034000  1
  Ni  Ni16  1  0.97119000  0.48558000  0.57356000  1
  Ni  Ni17  1  0.51448000  0.02890000  0.90685000  1
  H  H18  1  0.40882000  0.53942000  0.60738000  1
  H  H19  1  0.35171000  0.40591000  0.59583000  1
  H  H20  1  0.25460000  0.26779000  0.61550000  1
  H  H21  1  0.15652000  0.23961000  0.67682000  1
  H  H22  1  0.15660000  0.35035000  0.71829000  1
  H  H23  1  0.25486000  0.48853000  0.69885000  1
  H  H24  1  0.08878000  0.51582000  0.42211000  1
  H  H25  1  0.18276000  0.70218000  0.49118000  1
  H  H26  1  0.14861000  0.80777000  0.48104000  1
  H  H27  1  0.04772000  0.79203000  0.42419000  1
  H  H28  1  0.98194000  0.67059000  0.37697000  1
  H  H29  1  0.01640000  0.56582000  0.38733000  1
  H  H30  1  0.62836000  0.58934000  0.77761000  1
  H  H31  1  0.53571000  0.41536000  0.75434000  1
  H  H32  1  0.67484000  0.54114000  0.66868000  1
  H  H33  1  0.66867000  0.51938000  0.72659000  1
  H  H34  1  0.44646000  0.61953000  0.76288000  1
  H  H35  1  0.52656000  0.47054000  0.66349000  1
  H  H36  1  0.56869000  0.41081000  0.67643000  1
  H  H37  1  0.56043000  0.63972000  0.83401000  1
  H  H38  1  0.54295000  0.71511000  0.81394000  1
  H  H39  1  0.69853000  0.65663000  0.70803000  1
  H  H40  1  0.60375000  0.61780000  0.68288000  1
  H  H41  1  0.39591000  0.61887000  0.83802000  1
  H  H42  1  0.42828000  0.55247000  0.85466000  1
  H  H43  1  0.35237000  0.41207000  0.83454000  1
  H  H44  1  0.26384000  0.37471000  0.80273000  1
  H  H45  1  0.28128000  0.49317000  0.83572000  1
  H  H46  1  0.30731000  0.51706000  0.77891000  1
  H  H47  1  0.43481000  0.30718000  0.71655000  1
  H  H48  1  0.40787000  0.37103000  0.68887000  1
  H  H49  1  0.34264000  0.42957000  0.73627000  1
  H  H50  1  0.58182000  0.69698000  0.73543000  1
  H  H51  1  0.66075000  0.72539000  0.77429000  1
  H  H52  1  0.39365000  0.33862000  0.79136000  1
  H  H53  1  0.31405000  0.29892000  0.75210000  1
  H  H54  1  0.45951000  0.86922000  0.27484000  1
  H  H55  1  0.59418000  0.94590000  0.26269000  1
  H  H56  1  0.73285000  0.98682000  0.28234000  1
  H  H57  1  0.76163000  0.91732000  0.34353000  1
  H  H58  1  0.65081000  0.80666000  0.38473000  1
  H  H59  1  0.51220000  0.76681000  0.36539000  1
  H  H60  1  0.48407000  0.57261000  0.08931000  1
  H  H61  1  0.29714000  0.47965000  0.15838000  1
  H  H62  1  0.19170000  0.34031000  0.14790000  1
  H  H63  1  0.20813000  0.25625000  0.09065000  1
  H  H64  1  0.33009000  0.31228000  0.04361000  1
  H  H65  1  0.43458000  0.45113000  0.05434000  1
  H  H66  1  0.41040000  0.03860000  0.44430000  1
  H  H67  1  0.58481000  0.12006000  0.42139000  1
  H  H68  1  0.45838000  0.13307000  0.33553000  1
  H  H69  1  0.47984000  0.14854000  0.39349000  1
  H  H70  1  0.38060000  0.82766000  0.42973000  1
  H  H71  1  0.52963000  0.05591000  0.33052000  1
  H  H72  1  0.58914000  0.15733000  0.34358000  1
  H  H73  1  0.35973000  0.92101000  0.50077000  1
  H  H74  1  0.28446000  0.82839000  0.48058000  1
  H  H75  1  0.34250000  0.04142000  0.37474000  1
  H  H76  1  0.38179000  0.98589000  0.34952000  1
  H  H77  1  0.38135000  0.77778000  0.50472000  1
  H  H78  1  0.44765000  0.87605000  0.52163000  1
  H  H79  1  0.58863000  0.94054000  0.50160000  1
  H  H80  1  0.62623000  0.88967000  0.46970000  1
  H  H81  1  0.50753000  0.78893000  0.50245000  1
  H  H82  1  0.48359000  0.79130000  0.44565000  1
  H  H83  1  0.69325000  0.12735000  0.38365000  1
  H  H84  1  0.62942000  0.03686000  0.35593000  1
  H  H85  1  0.57112000  0.91370000  0.40328000  1
  H  H86  1  0.30241000  0.88499000  0.40211000  1
  H  H87  1  0.27390000  0.93551000  0.44093000  1
  H  H88  1  0.66221000  0.05518000  0.45841000  1
  H  H89  1  0.70209000  0.01544000  0.41911000  1
  H  H90  1  0.13009000  0.59013000  0.94143000  1
  H  H91  1  0.05355000  0.64840000  0.92930000  1
  H  H92  1  0.01272000  0.74619000  0.94892000  1
  H  H93  1  0.08254000  0.84396000  0.01018000  1
  H  H94  1  0.19355000  0.84348000  0.05136000  1
  H  H95  1  0.23330000  0.74468000  0.03197000  1
  H  H96  1  0.42733000  0.91201000  0.75565000  1
  H  H97  1  0.52037000  0.81759000  0.82455000  1
  H  H98  1  0.66017000  0.85148000  0.81435000  1
  H  H99  1  0.74471000  0.95195000  0.75747000  1
  H  H100  1  0.68847000  0.01777000  0.71042000  1
  H  H101  1  0.54918000  0.98349000  0.72080000  1
  H  H102  1  0.96164000  0.37232000  0.11101000  1
  H  H103  1  0.87948000  0.46498000  0.08787000  1
  H  H104  1  0.86690000  0.32588000  0.00214000  1
  H  H105  1  0.85132000  0.33206000  0.06007000  1
  H  H106  1  0.17293000  0.55301000  0.09633000  1
  H  H107  1  0.94394000  0.47368000  0.99707000  1
  H  H108  1  0.84216000  0.43193000  0.01003000  1
  H  H109  1  0.07962000  0.43967000  0.16750000  1
  H  H110  1  0.17254000  0.45683000  0.14747000  1
  H  H111  1  0.95903000  0.30198000  0.04144000  1
  H  H112  1  0.01451000  0.39643000  0.01625000  1
  H  H113  1  0.22293000  0.60356000  0.17145000  1
  H  H114  1  0.12428000  0.57164000  0.18820000  1
  H  H115  1  0.05927000  0.64759000  0.16805000  1
  H  H116  1  0.11017000  0.73583000  0.13630000  1
  H  H117  1  0.21140000  0.71811000  0.16921000  1
  H  H118  1  0.20929000  0.69198000  0.11240000  1
  H  H119  1  0.87216000  0.56586000  0.05000000  1
  H  H120  1  0.96293000  0.59215000  0.02241000  1
  H  H121  1  0.08643000  0.65690000  0.06978000  1
  H  H122  1  0.11586000  0.41810000  0.06891000  1
  H  H123  1  0.06547000  0.33945000  0.10775000  1
  H  H124  1  0.94464000  0.60677000  0.12487000  1
  H  H125  1  0.98416000  0.68606000  0.08562000  1
  H  H126  1  0.53913000  0.40879000  0.39273000  1
  H  H127  1  0.40512000  0.35146000  0.40415000  1
  H  H128  1  0.26675000  0.25406000  0.38440000  1
  H  H129  1  0.23897000  0.15623000  0.32312000  1
  H  H130  1  0.35036000  0.15675000  0.28184000  1
  H  H131  1  0.48875000  0.25517000  0.30138000  1
  H  H132  1  0.51567000  0.08906000  0.57791000  1
  H  H133  1  0.70259000  0.18273000  0.50900000  1
  H  H134  1  0.80847000  0.14864000  0.51907000  1
  H  H135  1  0.79256000  0.04781000  0.57575000  1
  H  H136  1  0.67081000  0.98228000  0.62291000  1
  H  H137  1  0.56586000  0.01682000  0.61268000  1
  H  H138  1  0.58911000  0.62765000  0.22249000  1
  H  H139  1  0.41468000  0.53512000  0.24573000  1
  H  H140  1  0.54091000  0.67430000  0.33134000  1
  H  H141  1  0.51900000  0.66787000  0.27342000  1
  H  H142  1  0.62004000  0.44679000  0.23719000  1
  H  H143  1  0.47037000  0.52643000  0.33657000  1
  H  H144  1  0.41031000  0.56825000  0.32360000  1
  H  H145  1  0.63962000  0.56014000  0.16606000  1
  H  H146  1  0.71549000  0.54299000  0.18601000  1
  H  H147  1  0.65676000  0.69803000  0.29202000  1
  H  H148  1  0.61808000  0.60363000  0.31724000  1
  H  H149  1  0.61923000  0.39627000  0.16203000  1
  H  H150  1  0.55252000  0.42839000  0.14542000  1
  H  H151  1  0.41170000  0.35246000  0.16556000  1
  H  H152  1  0.37453000  0.26423000  0.19731000  1
  H  H153  1  0.49333000  0.28185000  0.16431000  1
  H  H154  1  0.51738000  0.30789000  0.22114000  1
  H  H155  1  0.30646000  0.43444000  0.28359000  1
  H  H156  1  0.37076000  0.40789000  0.31123000  1
  H  H157  1  0.42955000  0.34296000  0.26381000  1
  H  H158  1  0.69763000  0.58182000  0.26460000  1
  H  H159  1  0.72570000  0.66044000  0.22574000  1
  H  H160  1  0.33798000  0.39341000  0.20876000  1
  H  H161  1  0.29836000  0.31410000  0.24799000  1
  H  H162  1  0.86950000  0.45989000  0.72514000  1
  H  H163  1  0.94599000  0.59402000  0.73738000  1
  H  H164  1  0.98671000  0.73224000  0.71787000  1
  H  H165  1  0.91702000  0.76078000  0.65658000  1
  H  H166  1  0.80643000  0.65017000  0.61512000  1
  H  H167  1  0.76678000  0.51200000  0.63432000  1
  H  H168  1  0.57238000  0.48392000  0.91085000  1
  H  H169  1  0.47976000  0.29747000  0.84171000  1
  H  H170  1  0.34024000  0.19187000  0.85220000  1
  H  H171  1  0.25571000  0.20784000  0.90943000  1
  H  H172  1  0.31140000  0.32957000  0.95643000  1
  H  H173  1  0.45040000  0.43428000  0.94566000  1
  H  H174  1  0.03903000  0.41069000  0.55568000  1
  H  H175  1  0.12049000  0.58461000  0.57865000  1
  H  H176  1  0.13377000  0.45881000  0.66454000  1
  H  H177  1  0.14934000  0.48017000  0.60661000  1
  H  H178  1  0.82728000  0.38077000  0.57019000  1
  H  H179  1  0.05630000  0.52971000  0.66950000  1
  H  H180  1  0.15799000  0.58914000  0.65651000  1
  H  H181  1  0.92089000  0.36001000  0.49917000  1
  H  H182  1  0.82812000  0.28488000  0.51935000  1
  H  H183  1  0.04200000  0.34319000  0.62526000  1
  H  H184  1  0.98622000  0.38230000  0.65042000  1
  H  H185  1  0.77720000  0.38132000  0.49516000  1
  H  H186  1  0.87572000  0.44755000  0.47833000  1
  H  H187  1  0.94023000  0.58803000  0.49839000  1
  H  H188  1  0.88922000  0.62555000  0.53028000  1
  H  H189  1  0.78820000  0.50709000  0.49744000  1
  H  H190  1  0.79060000  0.48328000  0.55423000  1
  H  H191  1  0.12766000  0.69276000  0.61643000  1
  H  H192  1  0.03701000  0.62902000  0.64412000  1
  H  H193  1  0.91336000  0.57064000  0.59669000  1
  H  H194  1  0.88511000  0.30308000  0.59781000  1
  H  H195  1  0.93568000  0.27457000  0.55900000  1
  H  H196  1  0.05517000  0.66158000  0.54164000  1
  H  H197  1  0.01523000  0.70127000  0.58094000  1
  H  H198  1  0.59022000  0.13069000  0.05863000  1
  H  H199  1  0.64848000  0.05405000  0.07069000  1
  H  H200  1  0.74625000  0.01306000  0.05094000  1
  H  H201  1  0.84429000  0.08259000  0.98974000  1
  H  H202  1  0.84399000  0.19345000  0.94867000  1
  H  H203  1  0.74509000  0.23327000  0.96815000  1
  H  H204  1  0.91220000  0.42757000  0.24438000  1
  H  H205  1  0.81742000  0.52008000  0.17526000  1
  H  H206  1  0.85130000  0.65948000  0.18547000  1
  H  H207  1  0.95181000  0.74384000  0.24251000  1
  H  H208  1  0.01781000  0.68790000  0.28967000  1
  H  H209  1  0.98358000  0.54904000  0.27929000  1
  H  H210  1  0.37163000  0.96158000  0.88890000  1
  H  H211  1  0.46497000  0.88002000  0.91198000  1
  H  H212  1  0.32558000  0.86725000  0.99777000  1
  H  H213  1  0.33165000  0.85160000  0.93983000  1
  H  H214  1  0.55281000  0.17232000  0.90371000  1
  H  H215  1  0.47380000  0.94427000  0.00284000  1
  H  H216  1  0.43207000  0.84279000  0.98982000  1
  H  H217  1  0.43900000  0.07933000  0.83249000  1
  H  H218  1  0.45622000  0.17197000  0.85267000  1
  H  H219  1  0.30133000  0.95892000  0.95852000  1
  H  H220  1  0.39610000  0.01440000  0.98366000  1
  H  H221  1  0.60335000  0.22232000  0.82863000  1
  H  H222  1  0.57152000  0.12399000  0.81178000  1
  H  H223  1  0.64795000  0.05941000  0.83190000  1
  H  H224  1  0.73643000  0.11028000  0.86371000  1
  H  H225  1  0.71837000  0.21106000  0.83086000  1
  H  H226  1  0.69220000  0.20891000  0.88767000  1
  H  H227  1  0.56634000  0.87285000  0.94982000  1
  H  H228  1  0.59267000  0.96337000  0.97746000  1
  H  H229  1  0.65726000  0.08645000  0.93019000  1
  H  H230  1  0.41755000  0.11529000  0.93115000  1
  H  H231  1  0.33862000  0.06505000  0.89230000  1
  H  H232  1  0.60717000  0.94509000  0.87498000  1
  H  H233  1  0.68672000  0.98463000  0.91426000  1
  C  C234  1  0.30682000  0.59223000  0.58965000  1
  C  C235  1  0.28579000  0.65829000  0.58856000  1
  C  C236  1  0.42702000  0.57211000  0.67822000  1
  C  C237  1  0.37312000  0.53997000  0.63613000  1
  C  C238  1  0.30988000  0.45590000  0.64611000  1
  C  C239  1  0.30906000  0.39342000  0.62275000  1
  C  C240  1  0.25426000  0.31578000  0.63380000  1
  C  C241  1  0.19931000  0.30000000  0.66826000  1
  C  C242  1  0.19946000  0.36226000  0.69155000  1
  C  C243  1  0.25462000  0.43997000  0.68065000  1
  C  C244  1  0.33567000  0.63623000  0.42772000  1
  C  C245  1  0.25119000  0.61723000  0.41570000  1
  C  C246  1  0.11891000  0.56109000  0.44840000  1
  C  C247  1  0.08452000  0.52149000  0.49468000  1
  C  C248  1  0.10161000  0.62724000  0.43993000  1
  C  C249  1  0.13915000  0.69591000  0.46604000  1
  C  C250  1  0.11982000  0.75500000  0.46029000  1
  C  C251  1  0.06311000  0.74622000  0.42836000  1
  C  C252  1  0.02599000  0.67805000  0.40201000  1
  C  C253  1  0.04538000  0.61895000  0.40780000  1
  C  C254  1  0.63826000  0.53094000  0.69890000  1
  C  C255  1  0.55867000  0.45775000  0.68948000  1
  C  C256  1  0.54344000  0.66128000  0.80414000  1
  C  C257  1  0.63750000  0.60718000  0.70887000  1
  C  C258  1  0.40490000  0.57064000  0.82616000  1
  C  C259  1  0.32519000  0.42326000  0.80499000  1
  C  C260  1  0.32618000  0.50143000  0.81050000  1
  C  C261  1  0.42974000  0.36022000  0.72081000  1
  C  C262  1  0.60137000  0.67787000  0.76532000  1
  C  C263  1  0.37279000  0.34953000  0.75910000  1
  C  C264  1  0.40704000  0.71485000  0.25650000  1
  C  C265  1  0.34094000  0.62813000  0.25556000  1
  C  C266  1  0.42791000  0.85452000  0.34575000  1
  C  C267  1  0.45982000  0.83311000  0.30331000  1
  C  C268  1  0.54443000  0.85423000  0.31285000  1
  C  C269  1  0.60687000  0.91578000  0.28953000  1
  C  C270  1  0.68484000  0.93856000  0.30054000  1
  C  C271  1  0.70099000  0.89955000  0.33490000  1
  C  C272  1  0.63872000  0.83752000  0.35807000  1
  C  C273  1  0.56074000  0.81501000  0.34722000  1
  C  C274  1  0.36348000  0.69901000  0.09381000  1
  C  C275  1  0.38234000  0.63341000  0.08213000  1
  C  C276  1  0.43819000  0.55734000  0.11531000  1
  C  C277  1  0.47777000  0.56289000  0.16168000  1
  C  C278  1  0.37230000  0.47414000  0.10682000  1
  C  C279  1  0.30357000  0.44273000  0.13304000  1
  C  C280  1  0.24467000  0.36454000  0.12717000  1
  C  C281  1  0.25384000  0.31719000  0.09505000  1
  C  C282  1  0.32227000  0.34844000  0.06876000  1
  C  C283  1  0.38112000  0.42668000  0.07466000  1
  C  C284  1  0.46856000  0.10679000  0.36578000  1
  C  C285  1  0.54218000  0.10055000  0.35655000  1
  C  C286  1  0.33836000  0.88256000  0.47089000  1
  C  C287  1  0.39225000  0.02999000  0.37558000  1
  C  C288  1  0.42960000  0.83488000  0.49301000  1
  C  C289  1  0.57748000  0.90244000  0.47197000  1
  C  C290  1  0.49916000  0.82553000  0.47732000  1
  C  C291  1  0.64021000  0.06942000  0.38788000  1
  C  C292  1  0.32158000  0.92359000  0.43199000  1
  C  C293  1  0.65122000  0.02344000  0.42615000  1
  C  C294  1  0.28496000  0.69273000  0.92304000  1
  C  C295  1  0.37193000  0.71323000  0.92181000  1
  C  C296  1  0.14539000  0.57348000  0.01214000  1
  C  C297  1  0.16658000  0.62659000  0.96981000  1
  C  C298  1  0.14546000  0.68992000  0.97947000  1
  C  C299  1  0.08377000  0.69103000  0.95615000  1
  C  C300  1  0.06102000  0.74617000  0.96718000  1
  C  C301  1  0.10024000  0.80108000  0.00156000  1
  C  C302  1  0.16245000  0.80063000  0.02473000  1
  C  C303  1  0.18494000  0.74521000  0.01385000  1
  C  C304  1  0.30031000  0.66570000  0.75985000  1
  C  C305  1  0.36609000  0.74982000  0.74825000  1
  C  C306  1  0.44231000  0.88117000  0.78164000  1
  C  C307  1  0.43687000  0.91506000  0.82805000  1
  C  C308  1  0.52581000  0.89822000  0.77318000  1
  C  C309  1  0.55737000  0.86091000  0.79933000  1
  C  C310  1  0.63588000  0.88017000  0.79361000  1
  C  C311  1  0.68348000  0.93666000  0.76168000  1
  C  C312  1  0.65212000  0.97380000  0.73542000  1
  C  C313  1  0.57355000  0.95443000  0.74116000  1
  C  C314  1  0.89316000  0.36232000  0.03239000  1
  C  C315  1  0.89915000  0.44177000  0.02306000  1
  C  C316  1  0.11816000  0.45647000  0.13764000  1
  C  C317  1  0.97032000  0.36291000  0.04228000  1
  C  C318  1  0.16566000  0.59476000  0.15965000  1
  C  C319  1  0.09758000  0.67458000  0.13852000  1
  C  C320  1  0.17486000  0.67333000  0.14400000  1
  C  C321  1  0.93024000  0.57060000  0.05433000  1
  C  C322  1  0.07714000  0.39873000  0.09876000  1
  C  C323  1  0.97632000  0.62744000  0.09261000  1
  C  C324  1  0.59171000  0.30606000  0.41036000  1
  C  C325  1  0.65796000  0.28505000  0.41131000  1
  C  C326  1  0.57206000  0.42680000  0.32194000  1
  C  C327  1  0.53980000  0.37310000  0.36405000  1
  C  C328  1  0.45558000  0.30994000  0.35397000  1
  C  C329  1  0.39278000  0.30894000  0.37722000  1
  C  C330  1  0.31501000  0.25398000  0.36613000  1
  C  C331  1  0.29946000  0.19914000  0.33172000  1
  C  C332  1  0.36208000  0.19956000  0.30852000  1
  C  C333  1  0.43992000  0.25483000  0.31946000  1
  C  C334  1  0.63596000  0.33539000  0.57222000  1
  C  C335  1  0.61718000  0.25121000  0.58427000  1
  C  C336  1  0.56113000  0.11909000  0.55167000  1
  C  C337  1  0.52131000  0.08446000  0.50539000  1
  C  C338  1  0.62750000  0.10190000  0.56021000  1
  C  C339  1  0.69634000  0.13929000  0.53413000  1
  C  C340  1  0.75556000  0.11993000  0.53981000  1
  C  C341  1  0.74669000  0.06326000  0.57163000  1
  C  C342  1  0.67835000  0.02630000  0.59795000  1
  C  C343  1  0.61915000  0.04575000  0.59226000  1
  C  C344  1  0.53072000  0.63772000  0.30115000  1
  C  C345  1  0.45742000  0.55832000  0.31058000  1
  C  C346  1  0.66151000  0.54338000  0.19590000  1
  C  C347  1  0.60726000  0.63711000  0.29122000  1
  C  C348  1  0.57083000  0.40515000  0.17391000  1
  C  C349  1  0.42310000  0.32545000  0.19508000  1
  C  C350  1  0.50157000  0.32661000  0.18955000  1
  C  C351  1  0.35973000  0.42955000  0.27930000  1
  C  C352  1  0.67821000  0.60117000  0.23475000  1
  C  C353  1  0.34903000  0.37271000  0.24102000  1
  C  C354  1  0.71482000  0.40724000  0.74357000  1
  C  C355  1  0.62797000  0.34110000  0.74455000  1
  C  C356  1  0.85462000  0.42802000  0.65428000  1
  C  C357  1  0.83320000  0.46002000  0.69665000  1
  C  C358  1  0.85430000  0.54430000  0.68703000  1
  C  C359  1  0.91583000  0.60662000  0.71049000  1
  C  C360  1  0.93849000  0.68432000  0.69954000  1
  C  C361  1  0.89939000  0.70034000  0.66513000  1
  C  C362  1  0.83739000  0.63818000  0.64180000  1
  C  C363  1  0.81501000  0.56046000  0.65257000  1
  C  C364  1  0.69894000  0.36339000  0.90627000  1
  C  C365  1  0.63328000  0.38237000  0.91797000  1
  C  C366  1  0.55721000  0.43830000  0.88474000  1
  C  C367  1  0.56292000  0.47786000  0.83836000  1
  C  C368  1  0.47379000  0.37240000  0.89316000  1
  C  C369  1  0.44260000  0.30375000  0.86701000  1
  C  C370  1  0.36432000  0.24474000  0.87289000  1
  C  C371  1  0.31670000  0.25368000  0.90500000  1
  C  C372  1  0.34775000  0.32196000  0.93127000  1
  C  C373  1  0.42608000  0.38095000  0.92534000  1
  C  C374  1  0.10742000  0.46890000  0.63426000  1
  C  C375  1  0.10107000  0.54226000  0.64349000  1
  C  C376  1  0.88241000  0.33870000  0.52905000  1
  C  C377  1  0.03046000  0.39275000  0.62439000  1
  C  C378  1  0.83442000  0.42950000  0.50691000  1
  C  C379  1  0.90205000  0.57695000  0.52800000  1
  C  C380  1  0.82494000  0.49881000  0.52260000  1
  C  C381  1  0.06961000  0.63981000  0.61217000  1
  C  C382  1  0.92373000  0.32213000  0.56794000  1
  C  C383  1  0.02338000  0.65063000  0.57389000  1
  C  C384  1  0.69251000  0.28509000  0.07695000  1
  C  C385  1  0.71297000  0.37180000  0.07816000  1
  C  C386  1  0.57344000  0.14544000  0.98782000  1
  C  C387  1  0.62670000  0.16689000  0.03022000  1
  C  C388  1  0.69026000  0.14585000  0.02065000  1
  C  C389  1  0.69125000  0.08422000  0.04389000  1
  C  C390  1  0.74637000  0.06134000  0.03277000  1
  C  C391  1  0.80141000  0.10038000  0.99841000  1
  C  C392  1  0.80109000  0.16252000  0.97531000  1
  C  C393  1  0.74567000  0.18511000  0.98627000  1
  C  C394  1  0.66509000  0.30055000  0.24017000  1
  C  C395  1  0.74952000  0.36613000  0.25179000  1
  C  C396  1  0.88113000  0.44235000  0.21840000  1
  C  C397  1  0.91513000  0.43693000  0.17202000  1
  C  C398  1  0.89808000  0.52557000  0.22683000  1
  C  C399  1  0.86075000  0.55700000  0.20057000  1
  C  C400  1  0.88002000  0.63527000  0.20627000  1
  C  C401  1  0.93656000  0.68281000  0.23829000  1
  C  C402  1  0.97378000  0.65160000  0.26463000  1
  C  C403  1  0.95440000  0.57326000  0.25889000  1
  C  C404  1  0.36203000  0.89342000  0.96751000  1
  C  C405  1  0.44182000  0.89958000  0.97683000  1
  C  C406  1  0.45592000  0.11773000  0.86240000  1
  C  C407  1  0.36244000  0.97026000  0.95764000  1
  C  C408  1  0.59463000  0.16523000  0.84037000  1
  C  C409  1  0.67496000  0.09761000  0.86147000  1
  C  C410  1  0.67352000  0.17457000  0.85604000  1
  C  C411  1  0.57100000  0.93073000  0.94553000  1
  C  C412  1  0.39811000  0.07673000  0.90125000  1
  C  C413  1  0.62788000  0.97670000  0.90727000  1
  N  N414  1  0.34305000  0.59266000  0.62714000  1
  N  N415  1  0.20196000  0.58531000  0.44962000  1
  N  N416  1  0.60090000  0.60453000  0.75314000  1
  N  N417  1  0.50750000  0.43011000  0.73020000  1
  N  N418  1  0.46468000  0.59863000  0.78964000  1
  N  N419  1  0.36961000  0.42293000  0.76446000  1
  N  N420  1  0.40728000  0.75064000  0.29414000  1
  N  N421  1  0.41352000  0.61581000  0.11637000  1
  N  N422  1  0.39504000  0.99611000  0.41980000  1
  N  N423  1  0.56996000  0.07712000  0.39729000  1
  N  N424  1  0.40142000  0.86661000  0.45653000  1
  N  N425  1  0.57775000  0.94714000  0.43151000  1
  N  N426  1  0.24923000  0.65640000  0.96049000  1
  N  N427  1  0.38334000  0.79846000  0.78248000  1
  N  N428  1  0.00421000  0.39947000  0.08653000  1
  N  N429  1  0.92250000  0.49289000  0.06379000  1
  N  N430  1  0.13395000  0.53505000  0.12314000  1
  N  N431  1  0.05293000  0.63031000  0.09800000  1
  N  N432  1  0.59267000  0.34317000  0.37318000  1
  N  N433  1  0.58532000  0.20192000  0.55036000  1
  N  N434  1  0.60457000  0.60048000  0.24697000  1
  N  N435  1  0.42968000  0.50715000  0.26987000  1
  N  N436  1  0.59889000  0.46481000  0.21044000  1
  N  N437  1  0.42273000  0.36973000  0.23562000  1
  N  N438  1  0.75053000  0.40767000  0.70583000  1
  N  N439  1  0.61582000  0.41367000  0.88376000  1
  N  N440  1  0.99644000  0.39541000  0.58015000  1
  N  N441  1  0.07747000  0.56983000  0.60274000  1
  N  N442  1  0.86631000  0.40151000  0.54342000  1
  N  N443  1  0.94691000  0.57728000  0.56848000  1
  N  N444  1  0.65636000  0.24933000  0.03943000  1
  N  N445  1  0.79823000  0.38337000  0.21754000  1
  N  N446  1  0.39895000  0.00403000  0.91339000  1
  N  N447  1  0.49300000  0.92290000  0.93611000  1
  N  N448  1  0.53479000  0.13351000  0.87684000  1
  N  N449  1  0.63061000  0.05303000  0.90194000  1
  O  O450  1  0.30635000  0.70400000  0.62307000  1
  O  O451  1  0.24913000  0.66207000  0.55444000  1
  O  O452  1  0.28885000  0.54367000  0.55682000  1
  O  O453  1  0.43470000  0.63406000  0.69760000  1
  O  O454  1  0.45823000  0.53276000  0.69150000  1
  O  O455  1  0.34685000  0.61970000  0.46820000  1
  O  O456  1  0.23491000  0.63256000  0.37644000  1
  O  O457  1  0.38732000  0.66675000  0.39744000  1
  O  O458  1  0.12696000  0.50401000  0.52012000  1
  O  O459  1  0.01669000  0.50902000  0.50491000  1
  O  O460  1  0.29656000  0.60254000  0.29066000  1
  O  O461  1  0.33601000  0.58869000  0.22073000  1
  O  O462  1  0.45475000  0.74494000  0.22325000  1
  O  O463  1  0.36606000  0.80045000  0.36524000  1
  O  O464  1  0.46740000  0.92478000  0.35910000  1
  O  O465  1  0.38002000  0.72699000  0.13419000  1
  O  O466  1  0.36785000  0.60219000  0.04277000  1
  O  O467  1  0.33323000  0.72022000  0.06333000  1
  O  O468  1  0.49681000  0.62378000  0.18629000  1
  O  O469  1  0.48852000  0.50681000  0.17267000  1
  O  O470  1  0.39771000  0.69402000  0.95670000  1
  O  O471  1  0.41129000  0.74786000  0.88704000  1
  O  O472  1  0.25452000  0.71092000  0.89019000  1
  O  O473  1  0.19973000  0.56563000  0.03153000  1
  O  O474  1  0.07488000  0.54262000  0.02543000  1
  O  O475  1  0.27230000  0.65398000  0.80025000  1
  O  O476  1  0.39781000  0.76611000  0.70902000  1
  O  O477  1  0.27924000  0.61455000  0.72928000  1
  O  O478  1  0.37636000  0.87299000  0.85291000  1
  O  O479  1  0.49253000  0.98210000  0.83879000  1
  O  O480  1  0.70396000  0.30601000  0.37690000  1
  O  O481  1  0.66156000  0.24810000  0.44530000  1
  O  O482  1  0.54258000  0.28717000  0.44303000  1
  O  O483  1  0.63421000  0.43450000  0.30260000  1
  O  O484  1  0.53262000  0.45793000  0.30863000  1
  O  O485  1  0.61939000  0.34638000  0.53173000  1
  O  O486  1  0.63262000  0.23523000  0.62359000  1
  O  O487  1  0.66641000  0.38703000  0.60251000  1
  O  O488  1  0.50296000  0.12626000  0.48006000  1
  O  O489  1  0.50939000  0.01702000  0.49509000  1
  O  O490  1  0.60237000  0.29668000  0.70944000  1
  O  O491  1  0.58848000  0.33614000  0.77936000  1
  O  O492  1  0.74519000  0.45480000  0.77685000  1
  O  O493  1  0.80043000  0.36617000  0.63486000  1
  O  O494  1  0.92503000  0.46745000  0.64091000  1
  O  O495  1  0.72701000  0.37987000  0.86590000  1
  O  O496  1  0.60182000  0.36768000  0.95726000  1
  O  O497  1  0.72001000  0.33299000  0.93670000  1
  O  O498  1  0.62397000  0.49690000  0.81377000  1
  O  O499  1  0.50666000  0.48854000  0.82735000  1
  O  O500  1  0.69370000  0.39744000  0.04326000  1
  O  O501  1  0.74773000  0.41116000  0.11294000  1
  O  O502  1  0.71066000  0.25483000  0.10990000  1
  O  O503  1  0.56536000  0.19945000  0.96840000  1
  O  O504  1  0.54276000  0.07512000  0.97451000  1
  O  O505  1  0.65336000  0.27279000  0.19971000  1
  O  O506  1  0.76608000  0.39778000  0.29103000  1
  O  O507  1  0.61381000  0.27944000  0.27071000  1
  O  O508  1  0.87319000  0.37621000  0.14732000  1
  O  O509  1  0.98208000  0.49273000  0.16118000  1
