# generated using pymatgen
data_ZnH6(CO)8
_symmetry_space_group_name_H-M   'P 1'
_cell_length_a   9.50431000
_cell_length_b   12.52031000
_cell_length_c   14.51805000
_cell_angle_alpha   89.62170000
_cell_angle_beta   90.86749000
_cell_angle_gamma   89.59631000
_symmetry_Int_Tables_number   1
_chemical_formula_structural   ZnH6(CO)8
_chemical_formula_sum   'Zn4 H24 C32 O32'
_cell_volume   1727.32327803
_cell_formula_units_Z   4
loop_
 _symmetry_equiv_pos_site_id
 _symmetry_equiv_pos_as_xyz
  1  'x, y, z'
loop_
 _atom_site_type_symbol
 _atom_site_label
 _atom_site_symmetry_multiplicity
 _atom_site_fract_x
 _atom_site_fract_y
 _atom_site_fract_z
 _atom_site_occupancy
  Zn  Zn0  1  0.24630000  0.78033000  0.74842000  1
  Zn  Zn1  1  0.25236000  0.26278000  0.75167000  1
  Zn  Zn2  1  0.75395000  0.22338000  0.25167000  1
  Zn  Zn3  1  0.75326000  0.73781000  0.24416000  1
  H  H4  1  0.57684000  0.79764000  0.54139000  1
  H  H5  1  0.61709000  0.90315000  0.61660000  1
  H  H6  1  0.40393000  0.91874000  0.45172000  1
  H  H7  1  0.98825000  0.29033000  0.50219000  1
  H  H8  1  0.89187000  0.36427000  0.58231000  1
  H  H9  1  0.14435000  0.45803000  0.47413000  1
  H  H10  1  0.91881000  0.80218000  0.95751000  1
  H  H11  1  0.88233000  0.91058000  0.88294000  1
  H  H12  1  0.09410000  0.91692000  0.04862000  1
  H  H13  1  0.51757000  0.28578000  0.00043000  1
  H  H14  1  0.61213000  0.35958000  0.91892000  1
  H  H15  1  0.36002000  0.45455000  0.02741000  1
  H  H16  1  0.42438000  0.20048000  0.45776000  1
  H  H17  1  0.38549000  0.09452000  0.38272000  1
  H  H18  1  0.59795000  0.07987000  0.54805000  1
  H  H19  1  0.00842000  0.71474000  0.49792000  1
  H  H20  1  0.10687000  0.64036000  0.41912000  1
  H  H21  1  0.85441000  0.54653000  0.52706000  1
  H  H22  1  0.08145000  0.19949000  0.04252000  1
  H  H23  1  0.11720000  0.09123000  0.11729000  1
  H  H24  1  0.90609000  0.08471000  0.95121000  1
  H  H25  1  0.48722000  0.70998000  0.99663000  1
  H  H26  1  0.39385000  0.63649000  0.07903000  1
  H  H27  1  0.64743000  0.54268000  0.97120000  1
  C  C28  1  0.41899000  0.83113000  0.63802000  1
  C  C29  1  0.53207000  0.86971000  0.57365000  1
  C  C30  1  0.48006000  0.94836000  0.50211000  1
  C  C31  1  0.22237000  0.07030000  0.59926000  1
  C  C32  1  0.09992000  0.32034000  0.62596000  1
  C  C33  1  0.99638000  0.35692000  0.55157000  1
  C  C34  1  0.03975000  0.45819000  0.50386000  1
  C  C35  1  0.07245000  0.56168000  0.70766000  1
  C  C36  1  0.07828000  0.83370000  0.86167000  1
  C  C37  1  0.96594000  0.87380000  0.92602000  1
  C  C38  1  0.01948000  0.94948000  0.99794000  1
  C  C39  1  0.28049000  0.06722000  0.89827000  1
  C  C40  1  0.40443000  0.31734000  0.87668000  1
  C  C41  1  0.50822000  0.35261000  0.95052000  1
  C  C42  1  0.46427000  0.45417000  0.99714000  1
  C  C43  1  0.42719000  0.55987000  0.79564000  1
  C  C44  1  0.58303000  0.16799000  0.36183000  1
  C  C45  1  0.46993000  0.12850000  0.42585000  1
  C  C46  1  0.52178000  0.05021000  0.49771000  1
  C  C47  1  0.77200000  0.92744000  0.40004000  1
  C  C48  1  0.89926000  0.68231000  0.37379000  1
  C  C49  1  0.00192000  0.64732000  0.44927000  1
  C  C50  1  0.95905000  0.54625000  0.49742000  1
  C  C51  1  0.92779000  0.43819000  0.29939000  1
  C  C52  1  0.92099000  0.16841000  0.13794000  1
  C  C53  1  0.03389000  0.12807000  0.07399000  1
  C  C54  1  0.98067000  0.05231000  0.00201000  1
  C  C55  1  0.71578000  0.93276000  0.09709000  1
  C  C56  1  0.60084000  0.68177000  0.12024000  1
  C  C57  1  0.49750000  0.64394000  0.04729000  1
  C  C58  1  0.54309000  0.54239000  0.00132000  1
  C  C59  1  0.56559000  0.44362000  0.21218000  1
  O  O60  1  0.45242000  0.77235000  0.70791000  1
  O  O61  1  0.13996000  0.04916000  0.54151000  1
  O  O62  1  0.30476000  0.09512000  0.65688000  1
  O  O63  1  0.06305000  0.24914000  0.68522000  1
  O  O64  1  0.22369000  0.35938000  0.63047000  1
  O  O65  1  0.15884000  0.61345000  0.67101000  1
  O  O66  1  0.98761000  0.50985000  0.74458000  1
  O  O67  1  0.28986000  0.85758000  0.62466000  1
  O  O68  1  0.04189000  0.77739000  0.79156000  1
  O  O69  1  0.36579000  0.04290000  0.95370000  1
  O  O70  1  0.19527000  0.09516000  0.84290000  1
  O  O71  1  0.43941000  0.24384000  0.81948000  1
  O  O72  1  0.28203000  0.35987000  0.87009000  1
  O  O73  1  0.33994000  0.61251000  0.83079000  1
  O  O74  1  0.51346000  0.50788000  0.75995000  1
  O  O75  1  0.20799000  0.85654000  0.87475000  1
  O  O76  1  0.54835000  0.22726000  0.29226000  1
  O  O77  1  0.85386000  0.94647000  0.45865000  1
  O  O78  1  0.69024000  0.90461000  0.34145000  1
  O  O79  1  0.93836000  0.75175000  0.31356000  1
  O  O80  1  0.77508000  0.64444000  0.36891000  1
  O  O81  1  0.84056000  0.38546000  0.33414000  1
  O  O82  1  0.01341000  0.49080000  0.26425000  1
  O  O83  1  0.71247000  0.14272000  0.37514000  1
  O  O84  1  0.95651000  0.22723000  0.20690000  1
  O  O85  1  0.63214000  0.95735000  0.04074000  1
  O  O86  1  0.79922000  0.90440000  0.15335000  1
  O  O87  1  0.55916000  0.74644000  0.18289000  1
  O  O88  1  0.72924000  0.65029000  0.12063000  1
  O  O89  1  0.66026000  0.39663000  0.17937000  1
  O  O90  1  0.47263000  0.49160000  0.24465000  1
  O  O91  1  0.79187000  0.14363000  0.12566000  1
