# generated using pymatgen
data_ZnH16(C17N5)2
_symmetry_space_group_name_H-M   'P 1'
_cell_length_a   11.53519000
_cell_length_b   12.47751000
_cell_length_c   14.75320000
_cell_angle_alpha   90.00000000
_cell_angle_beta   90.00000000
_cell_angle_gamma   89.99908000
_symmetry_Int_Tables_number   1
_chemical_formula_structural   ZnH16(C17N5)2
_chemical_formula_sum   'Zn2 H32 C68 N20'
_cell_volume   2123.43469367
_cell_formula_units_Z   2
loop_
 _symmetry_equiv_pos_site_id
 _symmetry_equiv_pos_as_xyz
  1  'x, y, z'
loop_
 _atom_site_type_symbol
 _atom_site_label
 _atom_site_symmetry_multiplicity
 _atom_site_fract_x
 _atom_site_fract_y
 _atom_site_fract_z
 _atom_site_occupancy
  Zn  Zn0  1  0.50000000  0.00000000  0.24990000  1
  Zn  Zn1  1  0.50000000  0.99999000  0.75007000  1
  H  H2  1  0.31313000  0.71894000  0.14633000  1
  H  H3  1  0.16749000  0.57575000  0.14663000  1
  H  H4  1  0.29977000  0.84019000  0.28652000  1
  H  H5  1  0.08479000  0.83156000  0.28650000  1
  H  H6  1  0.68688000  0.28107000  0.14633000  1
  H  H7  1  0.83251000  0.42425000  0.14663000  1
  H  H8  1  0.70023000  0.15981000  0.28652000  1
  H  H9  1  0.91521000  0.16844000  0.28650000  1
  H  H10  1  0.68687000  0.71894000  0.35367000  1
  H  H11  1  0.83251000  0.57575000  0.35337000  1
  H  H12  1  0.70024000  0.84019000  0.21347000  1
  H  H13  1  0.91522000  0.83156000  0.21351000  1
  H  H14  1  0.31313000  0.28106000  0.35367000  1
  H  H15  1  0.16750000  0.42425000  0.35337000  1
  H  H16  1  0.29976000  0.15981000  0.21347000  1
  H  H17  1  0.08479000  0.16844000  0.21351000  1
  H  H18  1  0.68688000  0.28107000  0.85367000  1
  H  H19  1  0.83251000  0.42425000  0.85337000  1
  H  H20  1  0.70023000  0.15981000  0.71348000  1
  H  H21  1  0.91521000  0.16844000  0.71350000  1
  H  H22  1  0.31313000  0.71894000  0.85367000  1
  H  H23  1  0.16749000  0.57575000  0.85337000  1
  H  H24  1  0.29977000  0.84019000  0.71348000  1
  H  H25  1  0.08479000  0.83156000  0.71350000  1
  H  H26  1  0.31313000  0.28106000  0.64633000  1
  H  H27  1  0.16750000  0.42425000  0.64663000  1
  H  H28  1  0.29976000  0.15981000  0.78653000  1
  H  H29  1  0.08479000  0.16844000  0.78649000  1
  H  H30  1  0.68687000  0.71894000  0.64633000  1
  H  H31  1  0.83251000  0.57575000  0.64663000  1
  H  H32  1  0.70024000  0.84019000  0.78653000  1
  H  H33  1  0.91522000  0.83156000  0.78650000  1
  C  C34  1  0.46466000  0.84785000  0.08019000  1
  C  C35  1  0.28143000  0.68769000  0.08212000  1
  C  C36  1  0.19915000  0.60655000  0.08220000  1
  C  C37  1  0.07899000  0.40718000  0.08048000  1
  C  C38  1  0.24818000  0.91041000  0.26947000  1
  C  C39  1  0.12762000  0.90665000  0.26957000  1
  C  C40  1  0.53534000  0.15215000  0.08019000  1
  C  C41  1  0.71857000  0.31232000  0.08212000  1
  C  C42  1  0.80086000  0.39345000  0.08220000  1
  C  C43  1  0.92101000  0.59282000  0.08048000  1
  C  C44  1  0.75183000  0.08960000  0.26947000  1
  C  C45  1  0.87238000  0.09335000  0.26957000  1
  C  C46  1  0.53534000  0.84787000  0.41980000  1
  C  C47  1  0.71857000  0.68769000  0.41788000  1
  C  C48  1  0.80085000  0.60655000  0.41780000  1
  C  C49  1  0.92101000  0.40717000  0.41951000  1
  C  C50  1  0.75184000  0.91041000  0.23052000  1
  C  C51  1  0.87239000  0.90665000  0.23044000  1
  C  C52  1  0.46466000  0.15213000  0.41980000  1
  C  C53  1  0.28144000  0.31231000  0.41788000  1
  C  C54  1  0.19915000  0.39345000  0.41780000  1
  C  C55  1  0.07899000  0.59282000  0.41952000  1
  C  C56  1  0.24817000  0.08959000  0.23052000  1
  C  C57  1  0.12761000  0.09335000  0.23044000  1
  C  C58  1  0.53534000  0.15215000  0.91981000  1
  C  C59  1  0.71857000  0.31232000  0.91788000  1
  C  C60  1  0.80086000  0.39345000  0.91780000  1
  C  C61  1  0.92101000  0.59282000  0.91952000  1
  C  C62  1  0.75183000  0.08960000  0.73053000  1
  C  C63  1  0.87238000  0.09335000  0.73043000  1
  C  C64  1  0.46466000  0.84785000  0.91981000  1
  C  C65  1  0.28143000  0.68769000  0.91788000  1
  C  C66  1  0.19915000  0.60655000  0.91780000  1
  C  C67  1  0.07900000  0.40718000  0.91951000  1
  C  C68  1  0.24818000  0.91041000  0.73053000  1
  C  C69  1  0.12762000  0.90665000  0.73043000  1
  C  C70  1  0.46466000  0.15213000  0.58020000  1
  C  C71  1  0.28144000  0.31231000  0.58212000  1
  C  C72  1  0.19915000  0.39345000  0.58220000  1
  C  C73  1  0.07900000  0.59282000  0.58048000  1
  C  C74  1  0.24817000  0.08959000  0.76948000  1
  C  C75  1  0.12761000  0.09335000  0.76957000  1
  C  C76  1  0.53534000  0.84787000  0.58020000  1
  C  C77  1  0.71857000  0.68769000  0.58212000  1
  C  C78  1  0.80085000  0.60655000  0.58220000  1
  C  C79  1  0.92101000  0.40718000  0.58049000  1
  C  C80  1  0.75184000  0.91041000  0.76948000  1
  C  C81  1  0.87239000  0.90665000  0.76957000  1
  C  C82  1  0.06422000  0.00000000  0.25000000  1
  C  C83  1  0.93578000  0.00000000  0.25000000  1
  C  C84  1  0.93578000  0.00000000  0.75000000  1
  C  C85  1  0.06422000  0.00000000  0.75000000  1
  C  C86  1  0.41741000  0.80924000  0.00000000  1
  C  C87  1  0.32604000  0.72857000  0.00000000  1
  C  C88  1  0.15824000  0.56425000  0.00000000  1
  C  C89  1  0.06754000  0.47565000  0.00000000  1
  C  C90  1  0.58259000  0.19076000  0.00000000  1
  C  C91  1  0.67396000  0.27143000  0.00000000  1
  C  C92  1  0.84177000  0.43575000  0.00000000  1
  C  C93  1  0.93246000  0.52435000  0.00000000  1
  C  C94  1  0.58258000  0.80926000  0.50000000  1
  C  C95  1  0.67395000  0.72858000  0.50000000  1
  C  C96  1  0.84176000  0.56425000  0.50000000  1
  C  C97  1  0.93246000  0.47565000  0.50000000  1
  C  C98  1  0.41742000  0.19074000  0.50000000  1
  C  C99  1  0.32605000  0.27142000  0.50000000  1
  C  C100  1  0.15824000  0.43575000  0.50000000  1
  C  C101  1  0.06755000  0.52435000  0.50000000  1
  N  N102  1  0.50501000  0.87785000  0.14893000  1
  N  N103  1  0.09019000  0.35504000  0.14545000  1
  N  N104  1  0.49499000  0.12215000  0.14893000  1
  N  N105  1  0.90981000  0.64496000  0.14545000  1
  N  N106  1  0.49503000  0.87787000  0.35104000  1
  N  N107  1  0.90981000  0.35505000  0.35456000  1
  N  N108  1  0.50498000  0.12212000  0.35104000  1
  N  N109  1  0.09019000  0.64496000  0.35455000  1
  N  N110  1  0.49500000  0.12214000  0.85107000  1
  N  N111  1  0.90981000  0.64496000  0.85455000  1
  N  N112  1  0.50501000  0.87785000  0.85107000  1
  N  N113  1  0.09019000  0.35504000  0.85456000  1
  N  N114  1  0.50498000  0.12213000  0.64895000  1
  N  N115  1  0.09019000  0.64496000  0.64545000  1
  N  N116  1  0.49502000  0.87787000  0.64895000  1
  N  N117  1  0.90981000  0.35505000  0.64544000  1
  N  N118  1  0.30849000  0.00000000  0.24999000  1
  N  N119  1  0.69151000  0.00000000  0.24999000  1
  N  N120  1  0.69151000  0.00000000  0.75001000  1
  N  N121  1  0.30849000  0.00000000  0.75001000  1
