# generated using pymatgen
data_Cr6H44C49O32
_symmetry_space_group_name_H-M   'P 1'
_cell_length_a   10.95659000
_cell_length_b   10.96781000
_cell_length_c   18.70560000
_cell_angle_alpha   89.94543000
_cell_angle_beta   89.96818000
_cell_angle_gamma   119.86316000
_symmetry_Int_Tables_number   1
_chemical_formula_structural   Cr6H44C49O32
_chemical_formula_sum   'Cr6 H44 C49 O32'
_cell_volume   1949.37007675
_cell_formula_units_Z   1
loop_
 _symmetry_equiv_pos_site_id
 _symmetry_equiv_pos_as_xyz
  1  'x, y, z'
loop_
 _atom_site_type_symbol
 _atom_site_label
 _atom_site_symmetry_multiplicity
 _atom_site_fract_x
 _atom_site_fract_y
 _atom_site_fract_z
 _atom_site_occupancy
  Cr  Cr0  1  0.60699000  0.39805000  0.49852000  1
  Cr  Cr1  1  0.60118000  0.70798000  0.49837000  1
  Cr  Cr2  1  0.29186000  0.39394000  0.50315000  1
  Cr  Cr3  1  0.06205000  0.93845000  0.99106000  1
  Cr  Cr4  1  0.37382000  0.93703000  0.00525000  1
  Cr  Cr5  1  0.06221000  0.62576000  0.99859000  1
  H  H6  1  0.42474000  0.90303000  0.21025000  1
  H  H7  1  0.19907000  0.43060000  0.29666000  1
  H  H8  1  0.07103000  0.57316000  0.21713000  1
  H  H9  1  0.09952000  0.57461000  0.33770000  1
  H  H10  1  0.11336000  0.11800000  0.18834000  1
  H  H11  1  0.17309000  0.22242000  0.31402000  1
  H  H12  1  0.42954000  0.22758000  0.19060000  1
  H  H13  1  0.38790000  0.12121000  0.30217000  1
  H  H14  1  0.82111000  0.51586000  0.31049000  1
  H  H15  1  0.52614000  0.82254000  0.18443000  1
  H  H16  1  0.60409000  0.60828000  0.28297000  1
  H  H17  1  0.23943000  0.44343000  0.84768000  1
  H  H18  1  0.42044000  0.75534000  0.80694000  1
  H  H19  1  0.41464000  0.96569000  0.78838000  1
  H  H20  1  0.49628000  0.09156000  0.67036000  1
  H  H21  1  0.28242000  0.15612000  0.79714000  1
  H  H22  1  0.22182000  0.10336000  0.68377000  1
  H  H23  1  0.02628000  0.91257000  0.78752000  1
  H  H24  1  0.55217000  0.77972000  0.30095000  1
  H  H25  1  0.92334000  0.89160000  0.66750000  1
  H  H26  1  0.83073000  0.58844000  0.78765000  1
  H  H27  1  0.89604000  0.59880000  0.67409000  1
  H  H28  1  0.47073000  0.87933000  0.32621000  1
  H  H29  1  0.15811000  0.76079000  0.21936000  1
  H  H30  1  0.20870000  0.76251000  0.33871000  1
  H  H31  1  0.41643000  0.56672000  0.18183000  1
  H  H32  1  0.38062000  0.48500000  0.29741000  1
  H  H33  1  0.63003000  0.13201000  0.13469000  1
  H  H34  1  0.81694000  0.19996000  0.14201000  1
  H  H35  1  0.70028000  0.08518000  0.21033000  1
  H  H36  1  0.81760000  0.32577000  0.25480000  1
  H  H37  1  0.63330000  0.26547000  0.24267000  1
  H  H38  1  0.69660000  0.39073000  0.11989000  1
  H  H39  1  0.87791000  0.45291000  0.14357000  1
  H  H40  1  0.92806000  0.06996000  0.26846000  1
  H  H41  1  0.79331000  0.93456000  0.32237000  1
  H  H42  1  0.97195000  0.01741000  0.35230000  1
  H  H43  1  0.91999000  0.79357000  0.30562000  1
  H  H44  1  0.03232000  0.91270000  0.24405000  1
  H  H45  1  0.84644000  0.89321000  0.16638000  1
  H  H46  1  0.71253000  0.77893000  0.21806000  1
  H  H47  1  0.02016000  0.18716000  0.70758000  1
  H  H48  1  0.68418000  0.74018000  0.79908000  1
  H  H49  1  0.16089000  0.29273000  0.07398000  1
  C  C50  1  0.68621000  0.61041000  0.38944000  1
  C  C51  1  0.31088000  0.54374000  0.20129000  1
  C  C52  1  0.29692000  0.67608000  0.18833000  1
  C  C53  1  0.32587000  0.65035000  0.32444000  1
  C  C54  1  0.19410000  0.66456000  0.31311000  1
  C  C55  1  0.30446000  0.51871000  0.28189000  1
  C  C56  1  0.32899000  0.16576000  0.32674000  1
  C  C57  1  0.32368000  0.17774000  0.16923000  1
  C  C58  1  0.21731000  0.15766000  0.21110000  1
  C  C59  1  0.23694000  0.18558000  0.28825000  1
  C  C60  1  0.67534000  0.58764000  0.31255000  1
  C  C61  1  0.34489000  0.62348000  0.39935000  1
  C  C62  1  0.81912000  0.67753000  0.16666000  1
  C  C63  1  0.77702000  0.55170000  0.20132000  1
  C  C64  1  0.75418000  0.54272000  0.27934000  1
  C  C65  1  0.40465000  0.59333000  0.69012000  1
  C  C66  1  0.35997000  0.66320000  0.83979000  1
  C  C67  1  0.30642000  0.53265000  0.81366000  1
  C  C68  1  0.29893000  0.50747000  0.73592000  1
  C  C69  1  0.32253000  0.12552000  0.66202000  1
  C  C70  1  0.31775000  0.08423000  0.81438000  1
  C  C71  1  0.37459000  0.03236000  0.76907000  1
  C  C72  1  0.37267000  0.22932000  0.39746000  1
  C  C73  1  0.40095000  0.07956000  0.69482000  1
  C  C74  1  0.88161000  0.68363000  0.65369000  1
  C  C75  1  0.89740000  0.69421000  0.80768000  1
  C  C76  1  0.96220000  0.80835000  0.76499000  1
  C  C77  1  0.92908000  0.80294000  0.68964000  1
  C  C78  1  0.29936000  0.10517000  0.10127000  1
  C  C79  1  0.27403000  0.69020000  0.11241000  1
  C  C80  1  0.88384000  0.70872000  0.09433000  1
  C  C81  1  0.29821000  0.04288000  0.88825000  1
  C  C82  1  0.30723000  0.68769000  0.90576000  1
  C  C83  1  0.78539000  0.65207000  0.59499000  1
  C  C84  1  0.91839000  0.71560000  0.88357000  1
  C  C85  1  0.38882000  0.58319000  0.61130000  1
  C  C86  1  0.37883000  0.22171000  0.60203000  1
  C  C87  1  0.43326000  0.80644000  0.21607000  1
  C  C88  1  0.45513000  0.78610000  0.29514000  1
  C  C89  1  0.17081000  0.66845000  0.23194000  1
  C  C90  1  0.77283000  0.42420000  0.16486000  1
  C  C91  1  0.73353000  0.29700000  0.21422000  1
  C  C92  1  0.71935000  0.17100000  0.17252000  1
  C  C93  1  0.81967000  0.80447000  0.20338000  1
  C  C94  1  0.92505000  0.86906000  0.26543000  1
  C  C95  1  0.90378000  0.97990000  0.30424000  1
  C  C96  1  0.15860000  0.39499000  0.71245000  1
  C  C97  1  0.54801000  0.69340000  0.71821000  1
  C  C98  1  0.20318000  0.41391000  0.16165000  1
  O  O99  1  0.49289000  0.25628000  0.41970000  1
  O  O100  1  0.47536000  0.69537000  0.57490000  1
  O  O101  1  0.26411000  0.50439000  0.58402000  1
  O  O102  1  0.30944000  0.27782000  0.57765000  1
  O  O103  1  0.50001000  0.49999000  0.50002000  1
  O  O104  1  0.91081000  0.82587000  0.06768000  1
  O  O105  1  0.18093000  0.05396000  0.06856000  1
  O  O106  1  0.39293000  0.07644000  0.08354000  1
  O  O107  1  0.35289000  0.80655000  0.08231000  1
  O  O108  1  0.16292000  0.59386000  0.08470000  1
  O  O109  1  0.93523000  0.63608000  0.06745000  1
  O  O110  1  0.71917000  0.52719000  0.42206000  1
  O  O111  1  0.93175000  0.82920000  0.90706000  1
  O  O112  1  0.20035000  0.05704000  0.91967000  1
  O  O113  1  0.41387000  0.07976000  0.92292000  1
  O  O114  1  0.37230000  0.80963000  0.93342000  1
  O  O115  1  0.18386000  0.59718000  0.92408000  1
  O  O116  1  0.95464000  0.63917000  0.91856000  1
  O  O117  1  0.16602000  0.83375000  0.99830000  1
  O  O118  1  0.73864000  0.73899000  0.41573000  1
  O  O119  1  0.46741000  0.69478000  0.42563000  1
  O  O120  1  0.25553000  0.50375000  0.42300000  1
  O  O121  1  0.30148000  0.27723000  0.42838000  1
  O  O122  1  0.50147000  0.25692000  0.58072000  1
  O  O123  1  0.72712000  0.52778000  0.57132000  1
  O  O124  1  0.74722000  0.73963000  0.57675000  1
  O  O125  1  0.07390000  0.42553000  0.68778000  1
  O  O126  1  0.11952000  0.25454000  0.72424000  1
  O  O127  1  0.61723000  0.81076000  0.69214000  1
  O  O128  1  0.60018000  0.65577000  0.77721000  1
  O  O129  1  0.08070000  0.34900000  0.18174000  1
  O  O130  1  0.24300000  0.37518000  0.09843000  1
