# generated using pymatgen
data_H9C16N2O
_symmetry_space_group_name_H-M   'P 1'
_cell_length_a   28.11240000
_cell_length_b   34.87995000
_cell_length_c   34.87990000
_cell_angle_alpha   60.00014226
_cell_angle_beta   89.99860000
_cell_angle_gamma   89.99720000
_symmetry_Int_Tables_number   1
_chemical_formula_structural   H9C16N2O
_chemical_formula_sum   'H108 C192 N24 O12'
_cell_volume   29619.67317489
_cell_formula_units_Z   12
loop_
 _symmetry_equiv_pos_site_id
 _symmetry_equiv_pos_as_xyz
  1  'x, y, z'
loop_
 _atom_site_type_symbol
 _atom_site_label
 _atom_site_symmetry_multiplicity
 _atom_site_fract_x
 _atom_site_fract_y
 _atom_site_fract_z
 _atom_site_occupancy
  H  9  1  0.87083400  0.53826300  0.30038100  1
  H  17  1  0.10857300  0.53096100  0.12631300  1
  H  19  1  0.01706900  0.42391900  0.24605100  1
  H  20  1  0.95455700  0.42579200  0.29001000  1
  H  21  1  0.02318400  0.64545400  0.13328600  1
  H  22  1  0.96218600  0.64731400  0.17946600  1
  H  35  1  0.20406800  0.25991000  0.12313600  1
  H  43  1  0.44155300  0.08555300  0.30468900  1
  H  45  1  0.35020600  0.20542600  0.29190100  1
  H  46  1  0.28775300  0.24945500  0.24602600  1
  H  47  1  0.35622800  0.09265400  0.18314200  1
  H  48  1  0.29528000  0.13888800  0.13506900  1
  H  61  1  0.53742600  0.08260600  0.57868500  1
  H  69  1  0.77512700  0.26411100  0.57114300  1
  H  71  1  0.68358200  0.25130300  0.46419500  1
  H  72  1  0.62109300  0.20542200  0.46612700  1
  H  73  1  0.68975400  0.14270900  0.68572600  1
  H  74  1  0.62876600  0.09463300  0.68764800  1
  H  87  1  0.87083700  0.38234500  0.70100400  1
  H  95  1  0.10858700  0.38972100  0.87501800  1
  H  97  1  0.01709700  0.49673000  0.75524800  1
  H  98  1  0.95458700  0.49484300  0.71129900  1
  H  99  1  0.02318700  0.27519800  0.86811200  1
  H  100  1  0.96218700  0.27332000  0.82194500  1
  H  113  1  0.20406800  0.66072500  0.87825600  1
  H  121  1  0.44158500  0.83501600  0.69671900  1
  H  123  1  0.35017000  0.71521300  0.70946000  1
  H  124  1  0.28771400  0.67119400  0.75533300  1
  H  125  1  0.35625300  0.82795200  0.81825100  1
  H  126  1  0.29530200  0.78173000  0.86632100  1
  H  139  1  0.53743300  0.83809800  0.42267000  1
  H  147  1  0.77507200  0.65650500  0.43025000  1
  H  149  1  0.68356200  0.66937500  0.53717800  1
  H  150  1  0.62106500  0.71525800  0.53523500  1
  H  151  1  0.68971400  0.77791400  0.31564900  1
  H  152  1  0.62875500  0.82602700  0.31371500  1
  H  162  1  0.19016700  0.64047500  0.95640400  1
  H  163  1  0.13228500  0.59804700  0.01022100  1
  H  165  1  0.11351400  0.70071600  0.03935900  1
  H  167  1  0.15297700  0.77576600  0.95864100  1
  H  169  1  0.06410500  0.59856300  0.05439700  1
  H  171  1  0.23625700  0.74800000  0.93105400  1
  H  177  1  0.52357100  0.91632000  0.36473800  1
  H  178  1  0.46541500  0.96995000  0.35335400  1
  H  180  1  0.44644800  0.99866500  0.22170200  1
  H  182  1  0.48627000  0.91807100  0.22747500  1
  H  184  1  0.39676900  0.01358100  0.30873900  1
  H  186  1  0.56977800  0.89093500  0.28263500  1
  H  192  1  0.85683400  0.32458400  0.68076800  1
  H  193  1  0.79894800  0.31327100  0.63830300  1
  H  195  1  0.78031800  0.18135900  0.74078100  1
  H  197  1  0.81978800  0.18687900  0.81591400  1
  H  199  1  0.73091800  0.26857900  0.63856400  1
  H  201  1  0.90299300  0.24227000  0.78822800  1
  H  207  1  0.18999600  0.28012400  0.04508400  1
  H  208  1  0.13210300  0.32255100  0.99128000  1
  H  210  1  0.11359600  0.22001800  0.96190500  1
  H  212  1  0.15306900  0.14493800  0.04256900  1
  H  214  1  0.06399800  0.32215900  0.94689000  1
  H  216  1  0.23623900  0.17266400  0.07030400  1
  H  222  1  0.52348900  0.00448900  0.63656400  1
  H  223  1  0.46541500  0.95081100  0.64793600  1
  H  225  1  0.44655500  0.92188800  0.77966400  1
  H  227  1  0.48627000  0.00249700  0.77396500  1
  H  229  1  0.39698600  0.90697800  0.69256600  1
  H  231  1  0.56968200  0.02980200  0.71873000  1
  H  237  1  0.85686100  0.59604200  0.32064200  1
  H  238  1  0.79895900  0.60735300  0.36310200  1
  H  240  1  0.78030000  0.73925700  0.26060200  1
  H  242  1  0.81979500  0.73372600  0.18548300  1
  H  244  1  0.73089200  0.65204100  0.36279500  1
  H  246  1  0.90302400  0.67834200  0.21318800  1
  H  252  1  0.73741000  0.35962400  0.42482600  1
  H  253  1  0.76288200  0.42571400  0.36143800  1
  H  255  1  0.90359300  0.37706700  0.38224100  1
  H  257  1  0.90128600  0.31017500  0.47283800  1
  H  259  1  0.82496500  0.46979700  0.31016300  1
  H  261  1  0.81601900  0.27002600  0.50151100  1
  H  267  1  0.07081000  0.38465100  0.17703000  1
  H  268  1  0.09619400  0.32119500  0.17441900  1
  H  270  1  0.23691800  0.34182300  0.20237600  1
  H  272  1  0.23472700  0.43245800  0.17859000  1
  H  274  1  0.15819900  0.26984300  0.18166100  1
  H  276  1  0.14950100  0.46124300  0.19000500  1
  H  282  1  0.40398600  0.13647000  0.40016700  1
  H  283  1  0.42945200  0.13390700  0.46618800  1
  H  285  1  0.57015100  0.16175900  0.41750800  1
  H  287  1  0.56784300  0.13789700  0.35071400  1
  H  289  1  0.49153100  0.14115700  0.51023300  1
  H  291  1  0.48257100  0.14935100  0.31056400  1
  H  297  1  0.73740900  0.56103200  0.57653400  1
  H  298  1  0.76288400  0.49492300  0.63989500  1
  H  300  1  0.90360000  0.54354200  0.61909500  1
  H  302  1  0.90127100  0.61045700  0.52851300  1
  H  304  1  0.82497200  0.45078800  0.69113000  1
  H  306  1  0.81601400  0.65062700  0.49986300  1
  H  312  1  0.07081400  0.53599700  0.82429800  1
  H  313  1  0.09618300  0.59942200  0.82696800  1
  H  315  1  0.23692200  0.57881200  0.79901900  1
  H  317  1  0.23474500  0.48821000  0.82274900  1
  H  319  1  0.15818100  0.65074600  0.81979400  1
  H  321  1  0.14953300  0.45940300  0.81136000  1
  H  327  1  0.40395400  0.78408300  0.60125100  1
  H  328  1  0.42943100  0.78672100  0.53519600  1
  H  330  1  0.57014800  0.75894900  0.58383000  1
  H  332  1  0.56780000  0.78274800  0.65067400  1
  H  334  1  0.49151700  0.77949600  0.49113800  1
  H  336  1  0.48255000  0.77114100  0.69088300  1
  C  1  1  0.97049700  0.53639600  0.22582800  1
  C  2  1  0.95033700  0.49597200  0.25979500  1
  C  3  1  0.91260200  0.49682400  0.28636700  1
  C  4  1  0.89699300  0.53795400  0.28008200  1
  C  5  1  0.91657100  0.57830500  0.24726700  1
  C  6  1  0.95326300  0.57778400  0.21936700  1
  C  7  1  0.96816500  0.45536100  0.26604600  1
  C  8  1  0.97372500  0.61712200  0.18518900  1
  C  10  1  0.00798400  0.53526800  0.19858000  1
  C  11  1  0.02566700  0.49367800  0.20603000  1
  C  12  1  0.06380300  0.49222600  0.18021700  1
  C  13  1  0.08191900  0.53228300  0.14570600  1
  C  14  1  0.06409400  0.57396200  0.13621200  1
  C  15  1  0.02776200  0.57553000  0.16386600  1
  C  16  1  0.00524100  0.45422700  0.23988400  1
  C  18  1  0.00983700  0.61604400  0.15777500  1
  C  27  1  0.30362500  0.18524700  0.19962400  1
  C  28  1  0.28350200  0.21923700  0.20606700  1
  C  29  1  0.24580400  0.24585200  0.17861600  1
  C  30  1  0.23019200  0.23957600  0.14376700  1
  C  31  1  0.24971700  0.20672500  0.13625600  1
  C  32  1  0.28639100  0.17879900  0.16468900  1
  C  33  1  0.30133400  0.22547300  0.24043400  1
  C  34  1  0.30682700  0.14460800  0.15953700  1
  C  36  1  0.34107800  0.15795800  0.22802600  1
  C  37  1  0.35876100  0.16538900  0.26217600  1
  C  38  1  0.39685800  0.13952200  0.28947400  1
  C  39  1  0.41492500  0.10497700  0.28395900  1
  C  40  1  0.39710300  0.09551900  0.25175200  1
  C  41  1  0.36082800  0.12323000  0.22248700  1
  C  42  1  0.33837500  0.19927300  0.26775300  1
  C  44  1  0.34291000  0.11716200  0.18804900  1
  C  53  1  0.63704700  0.15910500  0.57671900  1
  C  54  1  0.61688500  0.16551400  0.53631300  1
  C  55  1  0.57917600  0.13805200  0.53720200  1
  C  56  1  0.56357400  0.10323600  0.57834900  1
  C  57  1  0.58315300  0.09574700  0.61868200  1
  C  58  1  0.61983000  0.12419600  0.61812700  1
  C  59  1  0.63469600  0.19986000  0.49568300  1
  C  60  1  0.64029500  0.11908400  0.65744400  1
  C  62  1  0.67452400  0.18750700  0.57555600  1
  C  63  1  0.69218900  0.22162800  0.53394500  1
  C  64  1  0.73030700  0.24892500  0.53246000  1
  C  65  1  0.74844800  0.24340500  0.57249600  1
  C  66  1  0.73065500  0.21123500  0.61419400  1
  C  67  1  0.69431300  0.18200100  0.61579800  1
  C  68  1  0.67176200  0.22717700  0.49451300  1
  C  70  1  0.67639500  0.14760600  0.65632700  1
  C  79  1  0.97050900  0.38424200  0.77553200  1
  C  80  1  0.95035400  0.42466000  0.74154800  1
  C  81  1  0.91262900  0.42379800  0.71497600  1
  C  82  1  0.89700800  0.38266200  0.72128600  1
  C  83  1  0.91657800  0.34231600  0.75412000  1
  C  84  1  0.95327000  0.34284800  0.78201500  1
  C  85  1  0.96818200  0.46527600  0.73528200  1
  C  86  1  0.97372700  0.30351500  0.81620800  1
  C  88  1  0.00799500  0.38537900  0.80277500  1
  C  89  1  0.02568400  0.42697400  0.79530100  1
  C  90  1  0.06382000  0.42843600  0.82110800  1
  C  91  1  0.08192600  0.38838800  0.85564200  1
  C  92  1  0.06411600  0.34670700  0.86513800  1
  C  93  1  0.02776900  0.34512200  0.83750500  1
  C  94  1  0.00526300  0.46642000  0.76143200  1
  C  96  1  0.00983400  0.30460600  0.84361700  1
  C  105  1  0.30361500  0.73538600  0.80174900  1
  C  106  1  0.28348100  0.70140100  0.79530400  1
  C  107  1  0.24578600  0.67478700  0.82276100  1
  C  108  1  0.23019200  0.68105800  0.85761900  1
  C  109  1  0.24973500  0.71389500  0.86513500  1
  C  110  1  0.28639100  0.74183000  0.83669000  1
  C  111  1  0.30130200  0.69517000  0.76093100  1
  C  112  1  0.30683000  0.77602000  0.84184100  1
  C  114  1  0.34106800  0.76266800  0.77334800  1
  C  115  1  0.35874300  0.75523600  0.73919700  1
  C  116  1  0.39684700  0.78108500  0.71191100  1
  C  117  1  0.41495000  0.81560700  0.71744500  1
  C  118  1  0.39714300  0.82506500  0.74965700  1
  C  119  1  0.36083100  0.79738800  0.77889500  1
  C  120  1  0.33834300  0.72136500  0.73361000  1
  C  122  1  0.34291700  0.80345700  0.81333300  1
  C  131  1  0.63703300  0.76156700  0.42464600  1
  C  132  1  0.61686700  0.75516200  0.46504800  1
  C  133  1  0.57915100  0.78262500  0.46415200  1
  C  134  1  0.56357100  0.81745400  0.42300600  1
  C  135  1  0.58313800  0.82493200  0.38267500  1
  C  136  1  0.61982300  0.79647900  0.38323600  1
  C  137  1  0.63467400  0.72082200  0.50568100  1
  C  138  1  0.64028700  0.80158100  0.34392200  1
  C  140  1  0.67450100  0.73315200  0.42581600  1
  C  141  1  0.69216800  0.69903800  0.46742900  1
  C  142  1  0.73030200  0.67174900  0.46892200  1
  C  143  1  0.74840500  0.67722700  0.42888900  1
  C  144  1  0.73056900  0.70935800  0.38719000  1
  C  145  1  0.69428100  0.73864000  0.38557800  1
  C  146  1  0.67174200  0.69349500  0.50685800  1
  C  148  1  0.67637600  0.77304500  0.34504400  1
  C  157  1  0.11652000  0.64543700  0.02981900  1
  C  158  1  0.13968700  0.62912200  0.00484600  1
  C  159  1  0.17399600  0.65443000  0.97272400  1
  C  160  1  0.18635300  0.69762500  0.96343200  1
  C  161  1  0.16326400  0.71400100  0.98870300  1
  C  164  1  0.12936100  0.68803800  0.02166800  1
  C  168  1  0.08337400  0.61826600  0.06149500  1
  C  170  1  0.22029200  0.72272800  0.93089000  1
  C  172  1  0.44958900  0.98935900  0.28642700  1
  C  173  1  0.47288500  0.96456000  0.32767400  1
  C  174  1  0.50733600  0.93254300  0.33448700  1
  C  175  1  0.51971100  0.92318900  0.30062900  1
  C  176  1  0.49650800  0.94830200  0.25901900  1
  C  179  1  0.46244500  0.98114500  0.25202200  1
  C  183  1  0.41607000  0.02076400  0.28195300  1
  C  185  1  0.55374600  0.89071500  0.30807300  1
  C  187  1  0.78325400  0.24623400  0.68559100  1
  C  188  1  0.80637200  0.28753500  0.66935000  1
  C  189  1  0.84068300  0.29430400  0.69468600  1
  C  190  1  0.85308700  0.26035100  0.73783800  1
  C  191  1  0.83003600  0.21869600  0.75414400  1
  C  194  1  0.79613900  0.21173500  0.72815000  1
  C  198  1  0.75015700  0.24178600  0.65835400  1
  C  200  1  0.88705600  0.26773500  0.76296200  1
  C  202  1  0.11649800  0.27523700  0.97154300  1
  C  203  1  0.13957700  0.29150800  0.99659200  1
  C  204  1  0.17389600  0.26620100  0.02870600  1
  C  205  1  0.18633200  0.22304500  0.03793000  1
  C  206  1  0.16331400  0.20670800  0.01259500  1
  C  209  1  0.12941100  0.23267700  0.97962900  1
  C  213  1  0.08332400  0.30241100  0.93990600  1
  C  215  1  0.22027400  0.19793300  0.07047400  1
  C  217  1  0.44962800  0.93130600  0.71489600  1
  C  218  1  0.47288500  0.95616800  0.67363400  1
  C  219  1  0.50728900  0.98821500  0.66683000  1
  C  220  1  0.51966800  0.99753000  0.70071200  1
  C  221  1  0.49650800  0.97235000  0.74233700  1
  C  224  1  0.46249100  0.93948000  0.74932400  1
  C  228  1  0.41624800  0.89979800  0.71938000  1
  C  230  1  0.55368200  0.03001200  0.69328500  1
  C  232  1  0.78326500  0.67439200  0.31580800  1
  C  233  1  0.80640500  0.63309800  0.33206200  1
  C  234  1  0.84072000  0.62632700  0.30672800  1
  C  235  1  0.85311200  0.66027600  0.26357000  1
  C  236  1  0.83004300  0.70192500  0.24725100  1
  C  239  1  0.79613900  0.70888700  0.27324200  1
  C  243  1  0.75013800  0.67883300  0.34302800  1
  C  245  1  0.88707200  0.65288200  0.23844700  1
  C  247  1  0.83593800  0.40830800  0.36535900  1
  C  248  1  0.78766800  0.40158300  0.37863400  1
  C  249  1  0.77256400  0.36232100  0.41622500  1
  C  250  1  0.80510000  0.32799000  0.44225500  1
  C  251  1  0.85355900  0.33441300  0.42878500  1
  C  254  1  0.86836900  0.37370200  0.39076500  1
  C  258  1  0.84997700  0.44836400  0.32893000  1
  C  260  1  0.79100900  0.29037000  0.48143900  1
  C  262  1  0.16924300  0.32500900  0.18798600  1
  C  263  1  0.12099800  0.33836200  0.18136700  1
  C  264  1  0.10594100  0.37598600  0.18300200  1
  C  265  1  0.13851300  0.40199600  0.19129400  1
  C  266  1  0.18695100  0.38845400  0.19839800  1
  C  269  1  0.20171000  0.35039600  0.19718100  1
  C  273  1  0.18323700  0.28855000  0.18438700  1
  C  275  1  0.12447000  0.44120600  0.18969900  1
  C  277  1  0.50249800  0.14743000  0.44875300  1
  C  278  1  0.45423100  0.14084100  0.44205400  1
  C  279  1  0.43913100  0.14243100  0.40282800  1
  C  280  1  0.47166800  0.15067900  0.36851200  1
  C  281  1  0.52012000  0.15776200  0.37491200  1
  C  284  1  0.53492800  0.15656900  0.41416300  1
  C  288  1  0.51653800  0.14385400  0.48878800  1
  C  290  1  0.45757100  0.14905800  0.33092600  1
  C  292  1  0.83594100  0.51231700  0.63598400  1
  C  293  1  0.78766600  0.51906200  0.62272500  1
  C  294  1  0.77255700  0.55834200  0.58515200  1
  C  295  1  0.80509700  0.59266700  0.55911900  1
  C  296  1  0.85355800  0.58622700  0.57258100  1
  C  299  1  0.86837300  0.54692400  0.61058100  1
  C  303  1  0.84998200  0.47224300  0.67239400  1
  C  305  1  0.79099800  0.63030200  0.51994500  1
  C  307  1  0.16923600  0.59562200  0.81339700  1
  C  308  1  0.12098700  0.58228600  0.81997700  1
  C  309  1  0.10594100  0.54467300  0.81831600  1
  C  310  1  0.13851700  0.51867700  0.81000300  1
  C  311  1  0.18695500  0.53221200  0.80292800  1
  C  314  1  0.20170600  0.57026200  0.80417000  1
  C  318  1  0.18322000  0.63206000  0.81703200  1
  C  320  1  0.12448800  0.47946500  0.81160200  1
  C  322  1  0.50248700  0.77325300  0.55260500  1
  C  323  1  0.45421300  0.77979700  0.55932200  1
  C  324  1  0.43911300  0.77818600  0.59856000  1
  C  325  1  0.47165000  0.76992900  0.63287400  1
  C  326  1  0.52010900  0.76287200  0.62646200  1
  C  329  1  0.53492100  0.76409800  0.58719600  1
  C  333  1  0.51652700  0.77684000  0.51256500  1
  C  335  1  0.45754600  0.77147600  0.67050100  1
  N  23  1  0.89841700  0.61387100  0.24648200  1
  N  24  1  0.89388500  0.45944300  0.31898100  1
  N  25  1  0.08551900  0.60892700  0.10227500  1
  N  26  1  0.08086600  0.45418100  0.18531100  1
  N  49  1  0.23156500  0.20598700  0.10144900  1
  N  50  1  0.22712900  0.27850100  0.18335600  1
  N  51  1  0.41854900  0.06160600  0.25070400  1
  N  52  1  0.41395700  0.14464000  0.32240000  1
  N  75  1  0.56500400  0.06097800  0.65426100  1
  N  76  1  0.56044700  0.14278700  0.49983600  1
  N  77  1  0.75210100  0.21024400  0.64914100  1
  N  78  1  0.74739800  0.28183400  0.49439600  1
  N  101  1  0.89842300  0.30674200  0.75492600  1
  N  102  1  0.89389000  0.46118100  0.68237400  1
  N  103  1  0.08551500  0.31175000  0.89912100  1
  N  104  1  0.08088800  0.46649300  0.81598400  1
  N  127  1  0.23158200  0.71465200  0.89992900  1
  N  128  1  0.22711100  0.64214200  0.81801700  1
  N  129  1  0.41857800  0.85898200  0.75070600  1
  N  130  1  0.41393900  0.77597700  0.67897700  1
  N  153  1  0.56501500  0.85972700  0.34710100  1
  N  154  1  0.56043300  0.77791200  0.50151300  1
  N  155  1  0.75205800  0.71036800  0.35225000  1
  N  156  1  0.74738700  0.63883100  0.50698700  1
  O  166  1  0.17370100  0.75474200  0.98273200  1
  O  181  1  0.50692700  0.94224400  0.22429800  1
  O  196  1  0.84050800  0.18387600  0.79484800  1
  O  211  1  0.17380400  0.16599500  0.01851300  1
  O  226  1  0.50694800  0.97835400  0.77708700  1
  O  241  1  0.84050900  0.73673900  0.20654500  1
  O  256  1  0.88723100  0.30293300  0.45140500  1
  O  271  1  0.22064800  0.41104700  0.20726000  1
  O  286  1  0.55379200  0.16658300  0.34344100  1
  O  301  1  0.88723400  0.61769500  0.54995700  1
  O  316  1  0.22066600  0.50962000  0.79407400  1
  O  331  1  0.55378500  0.75405700  0.65792400  1
