# generated using pymatgen
data_CaH3C7NO4
_symmetry_space_group_name_H-M   'P 1'
_cell_length_a   12.23387000
_cell_length_b   14.11393000
_cell_length_c   14.89405000
_cell_angle_alpha   96.22653000
_cell_angle_beta   113.40485000
_cell_angle_gamma   108.72568000
_symmetry_Int_Tables_number   1
_chemical_formula_structural   CaH3C7NO4
_chemical_formula_sum   'Ca6 H18 C42 N6 O24'
_cell_volume   2151.23082831
_cell_formula_units_Z   6
loop_
 _symmetry_equiv_pos_site_id
 _symmetry_equiv_pos_as_xyz
  1  'x, y, z'
loop_
 _atom_site_type_symbol
 _atom_site_label
 _atom_site_symmetry_multiplicity
 _atom_site_fract_x
 _atom_site_fract_y
 _atom_site_fract_z
 _atom_site_occupancy
  Ca  Ca1  1  0.69246000  0.59077000  0.57981000  1.0
  Ca  Ca2  1  0.46378000  0.93106000  0.12558000  1.0
  Ca  Ca3  1  0.30754000  0.40923000  0.42019000  1.0
  Ca  Ca4  1  0.53621000  0.06894000  0.87441000  1.0
  Ca  Ca5  1  0.00000000  0.00000000  0.50000000  1.0
  Ca  Ca6  1  0.00000000  0.50000000  0.00000000  1.0
  H  H1  1  0.95511000  0.79072000  0.60584000  1.0
  H  H2  1  0.51340000  0.59353000  0.37408000  1.0
  H  H3  1  0.92304000  0.63336000  0.81936000  1.0
  H  H4  1  0.26661000  0.91125000  0.91157000  1.0
  H  H5  1  0.68476000  0.88317000  0.31566000  1.0
  H  H6  1  0.28661000  0.71236000  0.15035000  1.0
  H  H7  1  0.58363000  0.80117000  0.78705000  1.0
  H  H8  1  0.30533000  0.65193000  0.88898000  1.0
  H  H9  1  0.31583000  0.47937000  0.65115000  1.0
  H  H10  1  0.04489000  0.20928000  0.39415000  1.0
  H  H11  1  0.48660000  0.40648000  0.62592000  1.0
  H  H12  1  0.07696000  0.36664000  0.18063000  1.0
  H  H13  1  0.73338000  0.08875000  0.08843000  1.0
  H  H14  1  0.31523000  0.11683000  0.68434000  1.0
  H  H15  1  0.71338000  0.28764000  0.84964000  1.0
  H  H16  1  0.41637000  0.19883000  0.21295000  1.0
  H  H17  1  0.69466000  0.34807000  0.11102000  1.0
  H  H18  1  0.68416000  0.52063000  0.34885000  1.0
  C  C1  1  0.12125000  0.86100000  0.75474000  1.0
  C  C2  1  0.10138000  0.77034000  0.87944000  1.0
  C  C3  1  0.99850000  0.78695000  0.68405000  1.0
  C  C4  1  0.38542000  0.64192000  0.26001000  1.0
  C  C5  1  0.50621000  0.65295000  0.33403000  1.0
  C  C6  1  0.61662000  0.73984000  0.35473000  1.0
  C  C7  1  0.98022000  0.69923000  0.80296000  1.0
  C  C8  1  0.17268000  0.85313000  0.85456000  1.0
  C  C9  1  0.74828000  0.75474000  0.43425000  1.0
  C  C10  1  0.51838000  0.63027000  0.64221000  1.0
  C  C11  1  0.44912000  0.73920000  0.84700000  1.0
  C  C12  1  0.45625000  0.63956000  0.70931000  1.0
  C  C13  1  0.60127000  0.81380000  0.30100000  1.0
  C  C14  1  0.37919000  0.71872000  0.20889000  1.0
  C  C15  1  0.19478000  0.94403000  0.72045000  1.0
  C  C16  1  0.49347000  0.83906000  0.92342000  1.0
  C  C17  1  0.26407000  0.55172000  0.23844000  1.0
  C  C18  1  0.15095000  0.75586000  0.98499000  1.0
  C  C19  1  0.50416000  0.73369000  0.78161000  1.0
  C  C20  1  0.34885000  0.64894000  0.83805000  1.0
  C  C21  1  0.35449000  0.55425000  0.70588000  1.0
  C  C22  1  0.87875000  0.13900000  0.24525000  1.0
  C  C23  1  0.89861000  0.22966000  0.12056000  1.0
  C  C24  1  0.00149000  0.21305000  0.31595000  1.0
  C  C25  1  0.61458000  0.35808000  0.73998000  1.0
  C  C26  1  0.49378000  0.34705000  0.66597000  1.0
  C  C27  1  0.38337000  0.26016000  0.64526000  1.0
  C  C28  1  0.01978000  0.30077000  0.19703000  1.0
  C  C29  1  0.82731000  0.14687000  0.14543000  1.0
  C  C30  1  0.25172000  0.24526000  0.56574000  1.0
  C  C31  1  0.48161000  0.36973000  0.35779000  1.0
  C  C32  1  0.55087000  0.26080000  0.15300000  1.0
  C  C33  1  0.54375000  0.36044000  0.29068000  1.0
  C  C34  1  0.39872000  0.18620000  0.69899000  1.0
  C  C35  1  0.62081000  0.28128000  0.79110000  1.0
  C  C36  1  0.80521000  0.05597000  0.27955000  1.0
  C  C37  1  0.50653000  0.16094000  0.07658000  1.0
  C  C38  1  0.73593000  0.44828000  0.76155000  1.0
  C  C39  1  0.84905000  0.24414000  0.01501000  1.0
  C  C40  1  0.49583000  0.26631000  0.21838000  1.0
  C  C41  1  0.65115000  0.35106000  0.16195000  1.0
  C  C42  1  0.64551000  0.44575000  0.29411000  1.0
  N  N1  1  0.92820000  0.70722000  0.70697000  1.0
  N  N2  1  0.48481000  0.80412000  0.22953000  1.0
  N  N3  1  0.30124000  0.55775000  0.76916000  1.0
  N  N4  1  0.07180000  0.29278000  0.29302000  1.0
  N  N5  1  0.51519000  0.19588000  0.77047000  1.0
  N  N6  1  0.69875000  0.44225000  0.23083000  1.0
  O  O1  1  0.24457000  0.83232000  0.05702000  1.0
  O  O2  1  0.75561000  0.68278000  0.47764000  1.0
  O  O3  1  0.46025000  0.55041000  0.56409000  1.0
  O  O4  1  0.31756000  0.98485000  0.77089000  1.0
  O  O5  1  0.12934000  0.96731000  0.64140000  1.0
  O  O6  1  0.16348000  0.52903000  0.15409000  1.0
  O  O7  1  0.26913000  0.50411000  0.30629000  1.0
  O  O8  1  0.84494000  0.83843000  0.45416000  1.0
  O  O9  1  0.09529000  0.66695000  0.99555000  1.0
  O  O10  1  0.55983000  0.92334000  0.91262000  1.0
  O  O11  1  0.62988000  0.69836000  0.66617000  1.0
  O  O12  1  0.46065000  0.83342000  0.99439000  1.0
  O  O13  1  0.75542000  0.16768000  0.94298000  1.0
  O  O14  1  0.24439000  0.31722000  0.52235000  1.0
  O  O15  1  0.53974000  0.44960000  0.43591000  1.0
  O  O16  1  0.68243000  0.01515000  0.22911000  1.0
  O  O17  1  0.87066000  0.03269000  0.35860000  1.0
  O  O18  1  0.83651000  0.47097000  0.84591000  1.0
  O  O19  1  0.73086000  0.49589000  0.69370000  1.0
  O  O20  1  0.15506000  0.16157000  0.54584000  1.0
  O  O21  1  0.90471000  0.33305000  0.00445000  1.0
  O  O22  1  0.44017000  0.07666000  0.08738000  1.0
  O  O23  1  0.37011000  0.30164000  0.33383000  1.0
  O  O24  1  0.53935000  0.16658000  0.00561000  1.0
