# generated using pymatgen
data_CuH5C26(NO)7
_symmetry_space_group_name_H-M   'P 1'
_cell_length_a   7.52364000
_cell_length_b   8.70174000
_cell_length_c   27.85349000
_cell_angle_alpha   93.86441000
_cell_angle_beta   94.90397000
_cell_angle_gamma   103.19234000
_symmetry_Int_Tables_number   1
_chemical_formula_structural   CuH5C26(NO)7
_chemical_formula_sum   'Cu2 H10 C52 N14 O14'
_cell_volume   1761.79714497
_cell_formula_units_Z   2
loop_
 _symmetry_equiv_pos_site_id
 _symmetry_equiv_pos_as_xyz
  1  'x, y, z'
loop_
 _atom_site_type_symbol
 _atom_site_label
 _atom_site_symmetry_multiplicity
 _atom_site_fract_x
 _atom_site_fract_y
 _atom_site_fract_z
 _atom_site_occupancy
  Cu  Cu0  1  0.31562000  0.48262000  0.49462000  1
  Cu  Cu1  1  0.68438000  0.51738000  0.50538000  1
  H  H2  1  0.52992000  0.75121000  0.74512000  1
  H  H3  1  0.27620000  0.08812000  0.83236000  1
  H  H4  1  0.47006000  0.24882000  0.25487000  1
  H  H5  1  0.79663000  0.86350000  0.05119000  1
  H  H6  1  0.20332000  0.13655000  0.94881000  1
  H  H7  1  0.76228000  0.87766000  0.97856000  1
  H  H8  1  0.23767000  0.12239000  0.02144000  1
  H  H9  1  0.71229000  0.04111000  0.50808000  1
  H  H10  1  0.28771000  0.95889000  0.49192000  1
  H  H11  1  0.72375000  0.91192000  0.16765000  1
  C  C12  1  0.54690000  0.80022000  0.50178000  1
  C  C13  1  0.61232000  0.62459000  0.13284000  1
  C  C14  1  0.49673000  0.50019000  0.64443000  1
  C  C15  1  0.50327000  0.49982000  0.35557000  1
  C  C16  1  0.60634000  0.63192000  0.03093000  1
  C  C17  1  0.39361000  0.36814000  0.96907000  1
  C  C18  1  0.39627000  0.36631000  0.02019000  1
  C  C19  1  0.60369000  0.63374000  0.97980000  1
  C  C20  1  0.50018000  0.49928000  0.05078000  1
  C  C21  1  0.49978000  0.50077000  0.94922000  1
  C  C22  1  0.71177000  0.75910000  0.06315000  1
  C  C23  1  0.45310000  0.19978000  0.49822000  1
  C  C24  1  0.28819000  0.24095000  0.93685000  1
  C  C25  1  0.71026000  0.75922000  0.11297000  1
  C  C26  1  0.28970000  0.24083000  0.88703000  1
  C  C27  1  0.49912000  0.50171000  0.59200000  1
  C  C28  1  0.50088000  0.49829000  0.40800000  1
  C  C29  1  0.69571000  0.76736000  0.95796000  1
  C  C30  1  0.30424000  0.23269000  0.04204000  1
  C  C31  1  0.57263000  0.96859000  0.50284000  1
  C  C32  1  0.42737000  0.03141000  0.49716000  1
  C  C33  1  0.62382000  0.61583000  0.82761000  1
  C  C34  1  0.49990000  0.50144000  0.89817000  1
  C  C35  1  0.37615000  0.38421000  0.17239000  1
  C  C36  1  0.37180000  0.39163000  0.81717000  1
  C  C37  1  0.62817000  0.60842000  0.18283000  1
  C  C38  1  0.48769000  0.35534000  0.71626000  1
  C  C39  1  0.51230000  0.64469000  0.28374000  1
  C  C40  1  0.46860000  0.35548000  0.66556000  1
  C  C41  1  0.53139000  0.64454000  0.33444000  1
  C  C42  1  0.52982000  0.64330000  0.67382000  1
  C  C43  1  0.47018000  0.35671000  0.32618000  1
  C  C44  1  0.51885000  0.64068000  0.72343000  1
  C  C45  1  0.50006000  0.49861000  0.10183000  1
  C  C46  1  0.48114000  0.35934000  0.27657000  1
  C  C47  1  0.50237000  0.49833000  0.74565000  1
  C  C48  1  0.49761000  0.50170000  0.25435000  1
  C  C49  1  0.58513000  0.79399000  0.65409000  1
  C  C50  1  0.41487000  0.20602000  0.34590000  1
  C  C51  1  0.07180000  0.65061000  0.54903000  1
  C  C52  1  0.92821000  0.34939000  0.45097000  1
  C  C53  1  0.77016000  0.91614000  0.88888000  1
  C  C54  1  0.22981000  0.08391000  0.11112000  1
  C  C55  1  0.58585000  0.79228000  0.36496000  1
  C  C56  1  0.60943000  0.62960000  0.87783000  1
  C  C57  1  0.41414000  0.20773000  0.63505000  1
  C  C58  1  0.49812000  0.78935000  0.26236000  1
  C  C59  1  0.50187000  0.21068000  0.73765000  1
  C  C60  1  0.39054000  0.37045000  0.12217000  1
  C  C61  1  0.69830000  0.76662000  0.90804000  1
  C  C62  1  0.30167000  0.23343000  0.09196000  1
  C  C63  1  0.38764000  0.37545000  0.86716000  1
  N  N64  1  0.50081000  0.50087000  0.79776000  1
  N  N65  1  0.17535000  0.96358000  0.12637000  1
  N  N66  1  0.63257000  0.90949000  0.38962000  1
  N  N67  1  0.36743000  0.09051000  0.61038000  1
  N  N68  1  0.48626000  0.90488000  0.24539000  1
  N  N69  1  0.51372000  0.09515000  0.75462000  1
  N  N70  1  0.49916000  0.49917000  0.20224000  1
  N  N71  1  0.96149000  0.54357000  0.51349000  1
  N  N72  1  0.03851000  0.45643000  0.48651000  1
  N  N73  1  0.63306000  0.91432000  0.63830000  1
  N  N74  1  0.36696000  0.08568000  0.36169000  1
  N  N75  1  0.16187000  0.74057000  0.57894000  1
  N  N76  1  0.83813000  0.25943000  0.42106000  1
  N  N77  1  0.82462000  0.03646000  0.87363000  1
  O  O78  1  0.38022000  0.71388000  0.49650000  1
  O  O79  1  0.23794000  0.28620000  0.19088000  1
  O  O80  1  0.77423000  0.69714000  0.21152000  1
  O  O81  1  0.22574000  0.30290000  0.78848000  1
  O  O82  1  0.79767000  0.89747000  0.14065000  1
  O  O83  1  0.20229000  0.10258000  0.85935000  1
  O  O84  1  0.61978000  0.28612000  0.50350000  1
  O  O85  1  0.69164000  0.74322000  0.50559000  1
  O  O86  1  0.30836000  0.25678000  0.49441000  1
  O  O87  1  0.34431000  0.48530000  0.56519000  1
  O  O88  1  0.65569000  0.51470000  0.43481000  1
  O  O89  1  0.65572000  0.51465000  0.57428000  1
  O  O90  1  0.34428000  0.48535000  0.42572000  1
  O  O91  1  0.76203000  0.71383000  0.80912000  1
