# generated using pymatgen
data_Ni2H19C30O7
_symmetry_space_group_name_H-M   'P 1'
_cell_length_a   14.82514500
_cell_length_b   15.76186000
_cell_length_c   16.23942500
_cell_angle_alpha   81.32542000
_cell_angle_beta   66.05613000
_cell_angle_gamma   81.40732000
_symmetry_Int_Tables_number   1
_chemical_formula_structural   Ni2H19C30O7
_chemical_formula_sum   'Ni8 H76 C120 O28'
_cell_volume   3412.09050728
_cell_formula_units_Z   4
loop_
 _symmetry_equiv_pos_site_id
 _symmetry_equiv_pos_as_xyz
  1  'x, y, z'
loop_
 _atom_site_type_symbol
 _atom_site_label
 _atom_site_symmetry_multiplicity
 _atom_site_fract_x
 _atom_site_fract_y
 _atom_site_fract_z
 _atom_site_occupancy
  C  C1  1  0.53636000  0.59080000  0.35950000  1.0
  C  C2  1  0.50988000  0.89355000  0.17014000  1.0
  C  C3  1  0.42440500  0.56478000  0.18324000  1.0
  C  C4  1  0.16135500  0.86214000  0.43808000  1.0
  C  C5  1  0.16512000  0.59492000  0.50914000  1.0
  C  C6  1  0.36566000  0.89821000  0.51472000  1.0
  C  C7  1  0.85880000  0.12982000  0.53314000  1.0
  C  C8  1  0.84268000  0.42893000  0.51426000  1.0
  C  C9  1  0.62540000  0.13343000  0.51808000  1.0
  C  C10  1  0.52020000  0.36642000  0.62696000  1.0
  C  C11  1  0.52688000  0.09025000  0.83566000  1.0
  C  C12  1  0.53608000  0.44881000  0.83974000  1.0
  C  C13  1  0.93488000  0.05790000  0.50360000  1.0
  C  C14  1  0.02061000  0.06857000  0.42316000  1.0
  C  C15  1  0.08348000  0.99586000  0.38766000  1.0
  C  C16  1  0.07156000  0.91564000  0.43939000  1.0
  C  C17  1  0.98154000  0.90407000  0.51556000  1.0
  C  C18  1  0.91328000  0.97519000  0.54556000  1.0
  C  C19  1  0.96446000  0.82076000  0.57262000  1.0
  C  C20  1  0.92631500  0.75622000  0.54912000  1.0
  C  C21  1  0.88850000  0.68626000  0.61228000  1.0
  C  C22  1  0.89212000  0.67874000  0.69768000  1.0
  C  C23  1  0.93348000  0.74114000  0.72030000  1.0
  C  C24  1  0.96884000  0.81240000  0.65840000  1.0
  C  C25  1  0.05062000  0.15564000  0.38106000  1.0
  C  C26  1  0.06880000  0.17957000  0.28924000  1.0
  C  C27  1  0.10818000  0.25752000  0.24690000  1.0
  C  C28  1  0.12938000  0.31188000  0.29588000  1.0
  C  C29  1  0.10908000  0.28945000  0.38780000  1.0
  C  C30  1  0.06921000  0.21184000  0.43064000  1.0
  C  C31  1  0.08318000  0.55133000  0.51006000  1.0
  C  C32  1  0.05338000  0.47567000  0.56832000  1.0
  C  C33  1  0.97884000  0.43261000  0.56475000  1.0
  C  C34  1  0.93521000  0.46296000  0.50218000  1.0
  C  C35  1  0.96916000  0.53579000  0.44038000  1.0
  C  C36  1  0.04388000  0.57875000  0.44388000  1.0
  C  C37  1  0.92446000  0.56939000  0.37408000  1.0
  C  C38  1  0.85012000  0.63877000  0.39238000  1.0
  C  C39  1  0.80686000  0.66962000  0.33014000  1.0
  C  C40  1  0.83802000  0.63181000  0.24928000  1.0
  C  C41  1  0.91250000  0.56305000  0.23054000  1.0
  C  C42  1  0.95582000  0.53187000  0.29270000  1.0
  C  C43  1  0.10274000  0.43917000  0.63052000  1.0
  C  C44  1  0.08536000  0.48028000  0.70722000  1.0
  C  C45  1  0.13820000  0.44960000  0.76184000  1.0
  C  C46  1  0.20816000  0.37772000  0.74040000  1.0
  C  C47  1  0.22482000  0.33597000  0.66474000  1.0
  C  C48  1  0.17170000  0.36610000  0.61020000  1.0
  C  C49  1  0.42776000  0.52082000  0.10884000  1.0
  C  C50  1  0.38758000  0.56479000  0.04720000  1.0
  C  C51  1  0.42545500  0.54209000  0.95820000  1.0
  C  C52  1  0.50466000  0.47756000  0.92972000  1.0
  C  C53  1  0.54142000  0.43115000  0.99274000  1.0
  C  C54  1  0.49970000  0.45068000  0.08240000  1.0
  C  C55  1  0.62602000  0.36374000  0.96512000  1.0
  C  C56  1  0.72218000  0.38684000  0.91168000  1.0
  C  C57  1  0.80242000  0.32326000  0.88800000  1.0
  C  C58  1  0.78754000  0.23687000  0.91988000  1.0
  C  C59  1  0.69246000  0.21394000  0.97570000  1.0
  C  C60  1  0.61180000  0.27719000  0.99868000  1.0
  C  C61  1  0.31392000  0.64071000  0.07252000  1.0
  C  C62  1  0.34332000  0.72415000  0.04006000  1.0
  C  C63  1  0.27666000  0.79611000  0.07168000  1.0
  C  C64  1  0.18040000  0.78515000  0.13529000  1.0
  C  C65  1  0.15034000  0.70222000  0.16686000  1.0
  C  C66  1  0.21674000  0.63002000  0.13540000  1.0
  C  C67  1  0.51532000  0.03863000  0.92252000  1.0
  C  C68  1  0.53904000  0.94830000  0.92630000  1.0
  C  C69  1  0.54458000  0.90211000  0.00546000  1.0
  C  C70  1  0.52314000  0.94482000  0.08218000  1.0
  C  C71  1  0.49718000  0.03527000  0.07850000  1.0
  C  C72  1  0.49234000  0.08100000  0.99928000  1.0
  C  C73  1  0.46934000  0.08125000  0.15932000  1.0
  C  C74  1  0.53908000  0.08200000  0.19720000  1.0
  C  C75  1  0.50712000  0.09606000  0.28793000  1.0
  C  C76  1  0.40630000  0.11396000  0.33980000  1.0
  C  C77  1  0.33736000  0.12025000  0.30038000  1.0
  C  C78  1  0.36872000  0.10536000  0.20982000  1.0
  C  C79  1  0.55484000  0.90202000  0.84831000  1.0
  C  C80  1  0.65176000  0.87529000  0.79025000  1.0
  C  C81  1  0.67042000  0.85578000  0.70331000  1.0
  C  C82  1  0.59268000  0.86181000  0.67448000  1.0
  C  C83  1  0.49548000  0.88362000  0.73378000  1.0
  C  C84  1  0.47612000  0.90196000  0.82120000  1.0
  C  C85  1  0.43200000  0.95178000  0.52825000  1.0
  C  C86  1  0.39246000  0.02895000  0.57060000  1.0
  C  C87  1  0.45564000  0.09253000  0.55897000  1.0
  C  C88  1  0.55783500  0.08063000  0.50566000  1.0
  C  C89  1  0.59726000  0.00390000  0.46256000  1.0
  C  C90  1  0.53426000  0.94001000  0.47498000  1.0
  C  C91  1  0.70454000  0.99103000  0.40198000  1.0
  C  C92  1  0.75056000  0.05767000  0.33658000  1.0
  C  C93  1  0.85192000  0.04684000  0.28276000  1.0
  C  C94  1  0.90742000  0.96874000  0.29122000  1.0
  C  C95  1  0.86176000  0.90119000  0.35348000  1.0
  C  C96  1  0.76108000  0.91243000  0.40984000  1.0
  C  C97  1  0.28424000  0.04532000  0.62456000  1.0
  C  C98  1  0.23018000  0.12022000  0.60298000  1.0
  C  C99  1  0.12816500  0.13486000  0.65310000  1.0
  C  C100  1  0.07932000  0.07469000  0.72410000  1.0
  C  C101  1  0.13266000  0.00048000  0.74640000  1.0
  C  C102  1  0.23496000  0.98615000  0.69762000  1.0
  C  C103  1  0.56556000  0.54786000  0.43284000  1.0
  C  C104  1  0.49358000  0.55845000  0.52166000  1.0
  C  C105  1  0.43736000  0.48846000  0.56898000  1.0
  C  C106  1  0.48590000  0.40541000  0.55502000  1.0
  C  C107  1  0.55206000  0.39531000  0.46456000  1.0
  C  C108  1  0.61142000  0.46370000  0.41878000  1.0
  C  C109  1  0.52142000  0.34863000  0.40844000  1.0
  C  C110  1  0.42124000  0.35731000  0.41928000  1.0
  C  C111  1  0.39546000  0.33435000  0.35250000  1.0
  C  C112  1  0.46878000  0.30274000  0.27454000  1.0
  C  C113  1  0.56780000  0.29060000  0.26466000  1.0
  C  C114  1  0.59414000  0.31244000  0.33163000  1.0
  C  C115  1  0.50502000  0.62062000  0.57576000  1.0
  C  C116  1  0.41988000  0.65794000  0.64278000  1.0
  C  C117  1  0.42594000  0.68434000  0.71862000  1.0
  C  C118  1  0.51702000  0.67549000  0.72702000  1.0
  C  C119  1  0.60340000  0.64743000  0.65611000  1.0
  C  C120  1  0.59784000  0.62161000  0.57980000  1.0
  H  H1  1  0.45480000  0.74050000  0.29300000  1.0
  H  H2  1  0.41404000  0.70331000  0.45114000  1.0
  H  H3  1  0.79360000  0.27353000  0.59592000  1.0
  H  H4  1  0.65994000  0.23772000  0.80972000  1.0
  H  H5  1  0.15032000  0.00426000  0.32698000  1.0
  H  H6  1  0.84432000  0.96632000  0.60376000  1.0
  H  H7  1  0.12350000  0.27524000  0.17582000  1.0
  H  H8  1  0.16208000  0.37117000  0.26247000  1.0
  H  H9  1  0.12614000  0.33134000  0.42536000  1.0
  H  H10  1  0.05564000  0.19413000  0.50136000  1.0
  H  H11  1  0.05428000  0.13706000  0.25040000  1.0
  H  H12  1  0.92290000  0.76170000  0.48334000  1.0
  H  H13  1  0.85634000  0.63788000  0.59508000  1.0
  H  H14  1  0.99708000  0.86232000  0.67782000  1.0
  H  H15  1  0.93646000  0.73515000  0.78644000  1.0
  H  H16  1  0.86284000  0.62453000  0.74632000  1.0
  H  H17  1  0.95360000  0.37615000  0.61176000  1.0
  H  H18  1  0.07026000  0.63443000  0.39602000  1.0
  H  H19  1  0.12556000  0.48199000  0.82034000  1.0
  H  H20  1  0.24995000  0.35477000  0.78204000  1.0
  H  H21  1  0.28000000  0.28112000  0.64754000  1.0
  H  H22  1  0.18590000  0.33408000  0.55102000  1.0
  H  H23  1  0.03242000  0.53670000  0.72348000  1.0
  H  H24  1  0.82462000  0.66762000  0.45530000  1.0
  H  H25  1  0.74882000  0.72255000  0.34482000  1.0
  H  H26  1  0.01350000  0.47873000  0.27774000  1.0
  H  H27  1  0.93666000  0.53394000  0.16784000  1.0
  H  H28  1  0.80442000  0.65574000  0.20118000  1.0
  H  H29  1  0.39440000  0.57560000  0.91078000  1.0
  H  H30  1  0.53328000  0.41922000  0.12846000  1.0
  H  H31  1  0.29992000  0.86033000  0.04758000  1.0
  H  H32  1  0.12916000  0.84089000  0.16028000  1.0
  H  H33  1  0.07592000  0.69389000  0.21632000  1.0
  H  H34  1  0.19354000  0.56593000  0.16138000  1.0
  H  H35  1  0.41834000  0.73310000  0.99200000  1.0
  H  H36  1  0.73458000  0.45387000  0.88842000  1.0
  H  H37  1  0.87618000  0.34100000  0.84532000  1.0
  H  H38  1  0.53863500  0.25924000  0.04310000  1.0
  H  H39  1  0.68122000  0.14711000  0.00056000  1.0
  H  H40  1  0.84972000  0.18773000  0.90148000  1.0
  H  H41  1  0.56098000  0.83257000  0.00864000  1.0
  H  H42  1  0.47226000  0.15007000  0.99696000  1.0
  H  H43  1  0.74523000  0.83788000  0.65766000  1.0
  H  H44  1  0.60715000  0.84586000  0.60762000  1.0
  H  H45  1  0.43516000  0.88529000  0.71231000  1.0
  H  H46  1  0.40078000  0.92123000  0.86594000  1.0
  H  H47  1  0.71314000  0.87480000  0.81040000  1.0
  H  H48  1  0.61712000  0.06509000  0.15842000  1.0
  H  H49  1  0.56052000  0.09490000  0.31746000  1.0
  H  H50  1  0.31418000  0.10578000  0.18112000  1.0
  H  H51  1  0.25956000  0.13425000  0.34062000  1.0
  H  H52  1  0.38214000  0.12625000  0.40944000  1.0
  H  H53  1  0.42563000  0.15003000  0.59424000  1.0
  H  H54  1  0.56400000  0.88300000  0.43886000  1.0
  H  H55  1  0.08710000  0.19324000  0.63740000  1.0
  H  H56  1  0.00022000  0.08588000  0.76230000  1.0
  H  H57  1  0.09476000  0.95413000  0.80172000  1.0
  H  H58  1  0.27554000  0.92882000  0.71598000  1.0
  H  H59  1  0.26720000  0.16750000  0.54838000  1.0
  H  H60  1  0.70830000  0.11824000  0.32846000  1.0
  H  H61  1  0.88736000  0.09896000  0.23410000  1.0
  H  H62  1  0.72712500  0.85997000  0.45876000  1.0
  H  H63  1  0.90422000  0.83982000  0.35738000  1.0
  H  H64  1  0.98576000  0.96036000  0.24904000  1.0
  H  H65  1  0.37466000  0.49783000  0.63242000  1.0
  H  H66  1  0.67432000  0.45346000  0.35568000  1.0
  H  H67  1  0.35950000  0.70915000  0.77220000  1.0
  H  H68  1  0.52100000  0.69232000  0.78760000  1.0
  H  H69  1  0.67430000  0.64322000  0.66150000  1.0
  H  H70  1  0.66442000  0.59492000  0.52800000  1.0
  H  H71  1  0.34790000  0.65921000  0.64000000  1.0
  H  H72  1  0.36442000  0.38738000  0.47606000  1.0
  H  H73  1  0.31875500  0.34317000  0.36020000  1.0
  H  H74  1  0.67150000  0.30493000  0.32202000  1.0
  H  H75  1  0.62434000  0.26494000  0.20458000  1.0
  H  H76  1  0.44876000  0.28662000  0.22208000  1.0
  Ni  Ni1  1  0.37922000  0.82778000  0.35306000  1.0
  Ni  Ni2  1  0.34128000  0.64242000  0.35282000  1.0
  Ni  Ni3  1  0.54218000  0.69917000  0.19036000  1.0
  Ni  Ni4  1  0.24750000  0.74488000  0.55274000  1.0
  Ni  Ni5  1  0.68238000  0.36861000  0.68568000  1.0
  Ni  Ni6  1  0.65531500  0.17763000  0.66826000  1.0
  Ni  Ni7  1  0.73666000  0.29091000  0.47968000  1.0
  Ni  Ni8  1  0.48476000  0.28325000  0.81238000  1.0
  O  O1  1  0.40688000  0.73869000  0.26638000  1.0
  O  O2  1  0.43300000  0.91583000  0.24384000  1.0
  O  O3  1  0.57538000  0.82718000  0.17520000  1.0
  O  O4  1  0.23654000  0.85137000  0.35994000  1.0
  O  O5  1  0.33388000  0.82734000  0.57066000  1.0
  O  O6  1  0.58634000  0.65080000  0.29788000  1.0
  O  O7  1  0.34224000  0.57027000  0.25809000  1.0
  O  O8  1  0.35396000  0.71942000  0.43830000  1.0
  O  O9  1  0.34746000  0.91741000  0.44116000  1.0
  O  O10  1  0.25582000  0.56556000  0.46000000  1.0
  O  O11  1  0.14576000  0.67296000  0.53818000  1.0
  O  O12  1  0.17716000  0.85268000  0.51264000  1.0
  O  O13  1  0.46204000  0.56282000  0.35230000  1.0
  O  O14  1  0.51004000  0.58019000  0.18266000  1.0
  O  O15  1  0.72446000  0.27923000  0.60072000  1.0
  O  O16  1  0.75968000  0.45457000  0.58122000  1.0
  O  O17  1  0.84312000  0.37804000  0.45464000  1.0
  O  O18  1  0.56820000  0.41499000  0.64948000  1.0
  O  O19  1  0.47324000  0.41269000  0.82068000  1.0
  O  O20  1  0.83636000  0.18111000  0.46812000  1.0
  O  O21  1  0.66498000  0.10182000  0.57521000  1.0
  O  O22  1  0.63162000  0.25961000  0.76406000  1.0
  O  O23  1  0.62782000  0.45437000  0.78008000  1.0
  O  O24  1  0.60788000  0.07682000  0.76363000  1.0
  O  O25  1  0.45912000  0.15343000  0.83160000  1.0
  O  O26  1  0.47665000  0.30252000  0.68598000  1.0
  O  O27  1  0.80254000  0.13156000  0.62276000  1.0
  O  O28  1  0.62616000  0.21708000  0.49044000  1.0
