# generated using pymatgen
data_SiH28C44(SN4)2
_symmetry_space_group_name_H-M   'P 1'
_cell_length_a   24.24650000
_cell_length_b   24.24650000
_cell_length_c   36.21390000
_cell_angle_alpha   90.00000000
_cell_angle_beta   90.00000000
_cell_angle_gamma   120.00000000
_symmetry_Int_Tables_number   1
_chemical_formula_structural   SiH28C44(SN4)2
_chemical_formula_sum   'Si6 H168 C264 S12 N48'
_cell_volume   18437.58532643
_cell_formula_units_Z   6
loop_
 _symmetry_equiv_pos_site_id
 _symmetry_equiv_pos_as_xyz
  1  'x, y, z'
loop_
 _atom_site_type_symbol
 _atom_site_label
 _atom_site_symmetry_multiplicity
 _atom_site_fract_x
 _atom_site_fract_y
 _atom_site_fract_z
 _atom_site_occupancy
  C  1  1  0.87624450  0.08232650  0.05905400  1
  C  2  1  0.91741100  0.09449500  0.02882800  1
  C  3  1  0.90708750  0.11741250  0.99542800  1
  C  4  1  0.85464950  0.12752250  0.99109600  1
  C  5  1  0.81479250  0.11699650  0.02197100  1
  C  6  1  0.82435350  0.09303150  0.05506100  1
  C  8  1  0.87771650  0.23736550  0.96827350  1
  C  9  1  0.84330750  0.26989850  0.97292400  1
  C  10  1  0.87492350  0.33526550  0.98170300  1
  C  11  1  0.94150900  0.36948600  0.98757300  1
  C  12  1  0.97488250  0.33565950  0.98652900  1
  C  13  1  0.94369450  0.27104950  0.97677300  1
  C  14  1  0.88360050  0.15704550  0.91719700  1
  C  15  1  0.77004600  0.12689400  0.93940800  1
  C  16  1  0.74970550  0.15782950  0.91416200  1
  C  17  1  0.68572400  0.12899800  0.90274400  1
  C  18  1  0.64148250  0.06655950  0.91415700  1
  C  19  1  0.66261300  0.03310600  0.93646300  1
  C  20  1  0.72612700  0.06265000  0.94854000  1
  C  21  1  0.87966850  0.09854150  0.90740200  1
  C  22  1  0.91542450  0.09529450  0.87775900  1
  C  23  1  0.95401300  0.15003700  0.85648000  1
  C  24  1  0.95265700  0.20658600  0.86381300  1
  C  25  1  0.91802800  0.21011700  0.89373900  1
  C  42  1  0.21292500  0.12969500  0.39247300  1
  C  43  1  0.18388050  0.08857750  0.36223300  1
  C  44  1  0.21707850  0.09894450  0.32881500  1
  C  45  1  0.27968350  0.15129150  0.32449400  1
  C  46  1  0.30902750  0.19111950  0.35538000  1
  C  47  1  0.27553000  0.18156000  0.38847700  1
  C  49  1  0.36648850  0.12832650  0.30162900  1
  C  50  1  0.43343700  0.16277500  0.30624100  1
  C  51  1  0.46724050  0.13119850  0.31498100  1
  C  52  1  0.43492250  0.06461350  0.32084600  1
  C  53  1  0.36772100  0.03120100  0.31984600  1
  C  54  1  0.33424450  0.06235450  0.31014000  1
  C  55  1  0.28021050  0.12236850  0.25058300  1
  C  56  1  0.36357750  0.23594750  0.27279500  1
  C  57  1  0.41482650  0.25632250  0.24752600  1
  C  58  1  0.44997450  0.32031150  0.23611900  1
  C  59  1  0.43186600  0.36456400  0.24764200  1
  C  60  1  0.37738450  0.34345850  0.27002800  1
  C  61  1  0.34334000  0.27990200  0.28202100  1
  C  62  1  0.22564500  0.12630800  0.24078000  1
  C  63  1  0.18664350  0.09056150  0.21113400  1
  C  64  1  0.20277850  0.05195850  0.18985500  1
  C  65  1  0.26065650  0.05327250  0.19721100  1
  C  66  1  0.29881250  0.08788950  0.22713900  1
  C  83  1  0.92370750  0.79289650  0.72570300  1
  C  84  1  0.91159250  0.82196150  0.69549200  1
  C  85  1  0.88871650  0.78877950  0.66207100  1
  C  86  1  0.87842900  0.72616900  0.65772500  1
  C  87  1  0.88894250  0.69680250  0.68858900  1
  C  88  1  0.91290850  0.73027350  0.72169200  1
  C  90  1  0.76858450  0.63945950  0.63490200  1
  C  91  1  0.73601450  0.57251050  0.63951400  1
  C  92  1  0.67065700  0.53878900  0.64832000  1
  C  93  1  0.63647450  0.57117450  0.65426500  1
  C  94  1  0.67034850  0.63837450  0.65323200  1
  C  95  1  0.73494600  0.67177400  0.64345700  1
  C  96  1  0.84890150  0.72570350  0.58383900  1
  C  97  1  0.87901550  0.64223350  0.60599100  1
  C  98  1  0.84805950  0.59098950  0.58072700  1
  C  99  1  0.87685350  0.55582550  0.56926700  1
  C  100  1  0.93923200  0.57387100  0.58073200  1
  C  101  1  0.97268000  0.62837800  0.60309700  1
  C  102  1  0.94321500  0.66242900  0.61516100  1
  C  103  1  0.90741250  0.78026850  0.57405000  1
  C  104  1  0.91067850  0.81932050  0.54442900  1
  C  105  1  0.85591150  0.80330350  0.52320800  1
  C  106  1  0.79932800  0.74542900  0.53054500  1
  C  107  1  0.79579700  0.70719000  0.56042800  1
  C  124  1  0.13508100  0.92963900  0.05554400  1
  C  125  1  0.08249850  0.88184750  0.03624500  1
  C  126  1  0.09222950  0.85716350  0.00335100  1
  C  127  1  0.15445650  0.87945150  0.98908600  1
  C  128  1  0.20683500  0.92583900  0.00960600  1
  C  129  1  0.19725450  0.95093450  0.04225600  1
  C  131  1  0.12952850  0.77062050  0.96040600  1
  C  132  1  0.15440050  0.74942650  0.98908700  1
  C  133  1  0.12474350  0.68470150  0.99910600  1
  C  134  1  0.06765250  0.63984750  0.98179100  1
  C  135  1  0.04070850  0.66067950  0.95453000  1
  C  136  1  0.07086100  0.72510700  0.94429000  1
  C  137  1  0.12921400  0.86190800  0.91469300  1
  C  138  1  0.23984300  0.88154900  0.93712500  1
  C  139  1  0.27316500  0.84763500  0.93394900  1
  C  140  1  0.33799600  0.87887900  0.92406600  1
  C  141  1  0.37119850  0.94462750  0.91565000  1
  C  142  1  0.33691500  0.97760700  0.91615800  1
  C  143  1  0.27263250  0.94675150  0.92681600  1
  C  144  1  0.10087750  0.90077450  0.91696500  1
  C  145  1  0.06909100  0.90796300  0.88653500  1
  C  146  1  0.06777950  0.87890850  0.85265900  1
  C  147  1  0.09940950  0.84359950  0.84934400  1
  C  148  1  0.13024800  0.83573000  0.87990100  1
  C  165  1  0.80125150  0.87107450  0.38896900  1
  C  166  1  0.80617850  0.92365250  0.36959500  1
  C  167  1  0.77187850  0.91390750  0.33665200  1
  C  168  1  0.73192300  0.85166700  0.32240900  1
  C  169  1  0.72578600  0.79929700  0.34300000  1
  C  170  1  0.76031750  0.80889250  0.37571200  1
  C  172  1  0.64811450  0.87661650  0.29361900  1
  C  173  1  0.60204900  0.85183400  0.32230700  1
  C  174  1  0.56701000  0.88154000  0.33228100  1
  C  175  1  0.57920100  0.93853500  0.31485900  1
  C  176  1  0.62698050  0.96540750  0.28760200  1
  C  177  1  0.66127200  0.93523600  0.27743700  1
  C  178  1  0.73975950  0.87681450  0.24799300  1
  C  179  1  0.64869600  0.76623700  0.27044800  1
  C  180  1  0.58146050  0.73293250  0.26727000  1
  C  181  1  0.54785650  0.66809650  0.25740100  1
  C  182  1  0.58037200  0.63484000  0.24904200  1
  C  183  1  0.64763450  0.66908950  0.24960500  1
  C  184  1  0.68108800  0.73339900  0.26020600  1
  C  185  1  0.80696050  0.90514150  0.25030700  1
  C  186  1  0.84598400  0.93686100  0.21987900  1
  C  187  1  0.81829600  0.93813300  0.18597500  1
  C  188  1  0.75136050  0.90647450  0.18261700  1
  C  189  1  0.71260500  0.87571200  0.21317200  1
  C  206  1  0.07651300  0.20471600  0.72232200  1
  C  207  1  0.12427300  0.19991300  0.70299500  1
  C  208  1  0.14888050  0.23426050  0.67007100  1
  C  209  1  0.12657100  0.27418600  0.65581700  1
  C  210  1  0.08025150  0.28023650  0.67636700  1
  C  211  1  0.05523700  0.24562100  0.70904500  1
  C  213  1  0.23533200  0.35808300  0.62708500  1
  C  214  1  0.25651900  0.40416600  0.65575900  1
  C  215  1  0.32124100  0.43925700  0.66577400  1
  C  216  1  0.36611000  0.42707500  0.64843000  1
  C  217  1  0.34529300  0.37926800  0.62119200  1
  C  218  1  0.28085800  0.34495000  0.61096900  1
  C  219  1  0.14401550  0.26638450  0.58142000  1
  C  220  1  0.12434100  0.35736700  0.60382300  1
  C  221  1  0.15821900  0.42460000  0.60061700  1
  C  222  1  0.12694050  0.45814250  0.59071200  1
  C  223  1  0.06117300  0.42555500  0.58233700  1
  C  224  1  0.02822350  0.35829650  0.58289500  1
  C  225  1  0.05911850  0.32491050  0.59356200  1
  C  226  1  0.10515700  0.19918500  0.58372600  1
  C  227  1  0.09787300  0.16016900  0.55330100  1
  C  228  1  0.12696500  0.18782800  0.51941300  1
  C  229  1  0.16227150  0.25477150  0.51608300  1
  C  230  1  0.17015750  0.29353650  0.54661300  1
  C  247  1  0.04105350  0.57378750  0.98777600  1
  C  248  1  0.99230250  0.53978850  0.01401600  1
  C  249  1  0.96000000  0.47205200  0.01507100  1
  C  250  1  0.97567800  0.43725300  0.98974500  1
  C  251  1  0.02467900  0.47253000  0.96383100  1
  C  252  1  0.05640850  0.53876850  0.96290400  1
  C  254  1  0.89568650  0.47290850  0.06551800  1
  C  255  1  0.92757900  0.54044000  0.06416500  1
  C  260  1  0.84394850  0.43359750  0.09169900  1
  C  264  1  0.91470350  0.58185050  0.08839600  1
  C  268  1  0.53978000  0.96518200  0.32083500  1
  C  269  1  0.55447450  0.01381550  0.34714800  1
  C  270  1  0.51901850  0.04609550  0.34825800  1
  C  271  1  0.46857100  0.03049400  0.32292500  1
  C  272  1  0.45488000  0.98158000  0.29695400  1
  C  273  1  0.48938550  0.94985150  0.29598500  1
  C  275  1  0.58411450  0.11023450  0.39877500  1
  C  276  1  0.61977500  0.07836900  0.39737200  1
  C  281  1  0.59648950  0.16186950  0.42502400  1
  C  285  1  0.67403500  0.09117300  0.42160600  1
  C  289  1  0.43215100  0.46653700  0.65446100  1
  C  290  1  0.46614700  0.45171800  0.68066900  1
  C  291  1  0.53388500  0.48711500  0.68173200  1
  C  292  1  0.56871350  0.53761650  0.65643000  1
  C  293  1  0.53346300  0.55139300  0.63052600  1
  C  294  1  0.46722150  0.51694150  0.62961200  1
  C  296  1  0.53297250  0.42183950  0.73213400  1
  C  297  1  0.46544050  0.38622950  0.73077100  1
  C  302  1  0.57225550  0.40933950  0.75829700  1
  C  306  1  0.42400050  0.33191250  0.75497300  1
  C  310  1  0.47278400  0.43077800  0.24274300  1
  C  311  1  0.45785600  0.46774400  0.21888200  1
  C  312  1  0.49466700  0.53543000  0.21950900  1
  C  313  1  0.54650000  0.56737800  0.24443300  1
  C  314  1  0.56046300  0.52924200  0.26792400  1
  C  315  1  0.52477550  0.46301350  0.26704600  1
  C  317  1  0.42810000  0.54012900  0.17163800  1
  C  318  1  0.39114150  0.47263650  0.17134500  1
  C  323  1  0.41582450  0.58220150  0.14768300  1
  C  327  1  0.33542600  0.43400900  0.14739800  1
  C  331  1  0.57525800  0.04122900  0.90927200  1
  C  332  1  0.53828800  0.98928300  0.88544400  1
  C  333  1  0.47060050  0.95837350  0.88609400  1
  C  334  1  0.43865450  0.97825850  0.91102100  1
  C  335  1  0.47679750  0.03037350  0.93449600  1
  C  336  1  0.54302750  0.06103150  0.93354500  1
  C  338  1  0.46589850  0.88707050  0.83824500  1
  C  339  1  0.53339150  0.91763250  0.83793300  1
  C  344  1  0.42382150  0.83268750  0.81431400  1
  C  348  1  0.57201800  0.90054700  0.81398400  1
  C  352  1  0.96448900  0.53293100  0.57577000  1
  C  353  1  0.01652950  0.54795450  0.55202000  1
  C  354  1  0.04746700  0.51120500  0.55271800  1
  C  355  1  0.02754550  0.45937650  0.57765100  1
  C  356  1  0.97536450  0.44537450  0.60107500  1
  C  357  1  0.94471950  0.48096150  0.60009800  1
  C  359  1  0.11890100  0.57787200  0.50493600  1
  C  360  1  0.08831550  0.61477950  0.50457900  1
  C  365  1  0.17337250  0.59023450  0.48106900  1
  C  369  1  0.10545900  0.67052000  0.48064100  1
  C  373  1  0.85493300  0.98060600  0.15772600  1
  C  374  1  0.86730700  0.04419100  0.15954300  1
  C  375  1  0.88161100  0.08135800  0.12699700  1
  C  376  1  0.88274450  0.05507450  0.09217400  1
  C  377  1  0.87354550  0.99272350  0.09125400  1
  C  378  1  0.85958450  0.95627950  0.12323900  1
  C  380  1  0.88323600  0.16657100  0.16220200  1
  C  381  1  0.86781450  0.12893450  0.19464600  1
  C  386  1  0.89152450  0.23121350  0.16076900  1
  C  390  1  0.85753100  0.14762600  0.23176900  1
  C  394  1  0.13293500  0.15119500  0.49122500  1
  C  395  1  0.18398950  0.13862450  0.49299500  1
  C  396  1  0.20671800  0.12423500  0.46043000  1
  C  397  1  0.17925650  0.12313850  0.42563200  1
  C  398  1  0.12621500  0.13253800  0.42475100  1
  C  399  1  0.10381750  0.14651750  0.45676600  1
  C  401  1  0.29028750  0.12245950  0.49556100  1
  C  402  1  0.26821650  0.13800050  0.52802300  1
  C  407  1  0.34655050  0.11402550  0.49408600  1
  C  411  1  0.29727650  0.14827350  0.56512000  1
  C  415  1  0.02518050  0.87289650  0.82445050  1
  C  416  1  0.96155550  0.82182950  0.82622800  1
  C  417  1  0.92443650  0.79908050  0.79366600  1
  C  418  1  0.95080650  0.82653850  0.75887500  1
  C  419  1  0.01324800  0.87957200  0.75796500  1
  C  420  1  0.04965100  0.90192400  0.78997500  1
  C  422  1  0.83906850  0.71558450  0.82882000  1
  C  423  1  0.87668250  0.73768450  0.86128150  1
  C  428  1  0.77435850  0.65933950  0.82735900  1
  C  432  1  0.85786250  0.70870250  0.89839600  1
  C  436  1  0.16502450  0.01507850  0.15981400  1
  C  437  1  0.14699100  0.94977900  0.15688900  1
  C  438  1  0.12917250  0.91819650  0.12232200  1
  C  439  1  0.12816700  0.95132300  0.09035700  1
  C  440  1  0.14262850  0.01510850  0.09407600  1
  C  441  1  0.16038750  0.04622150  0.12799400  1
  C  443  1  0.12275250  0.82469250  0.14986700  1
  C  444  1  0.13987250  0.85597650  0.18457200  1
  C  449  1  0.11047550  0.75932550  0.14332300  1
  C  453  1  0.14835200  0.82905700  0.21934100  1
  C  457  1  0.85674250  0.84115150  0.49322700  1
  C  458  1  0.80951800  0.85923700  0.49036700  1
  C  459  1  0.79570850  0.87707550  0.45582500  1
  C  460  1  0.82971300  0.87804100  0.42382800  1
  C  461  1  0.87908800  0.86360600  0.42748200  1
  C  462  1  0.89251350  0.84584350  0.46138900  1
  C  464  1  0.70864450  0.88344650  0.48342200  1
  C  465  1  0.72284500  0.86629300  0.51810700  1
  C  470  1  0.65551350  0.89567850  0.47691900  1
  C  474  1  0.68746350  0.85775450  0.55289000  1
  C  478  1  0.99104500  0.14922700  0.82649300  1
  C  479  1  0.05634450  0.19646750  0.82367500  1
  C  480  1  0.08803050  0.21024650  0.78914450  1
  C  481  1  0.05493750  0.17619850  0.75716900  1
  C  482  1  0.99112900  0.12683200  0.76078000  1
  C  483  1  0.95988700  0.11349200  0.79466300  1
  C  485  1  0.18143050  0.29731250  0.81677100  1
  C  486  1  0.15005950  0.28308250  0.85145200  1
  C  491  1  0.24680450  0.35043750  0.81028900  1
  C  495  1  0.17687950  0.31844250  0.88624400  1
  H  26  1  0.67133100  0.15436600  0.88680200  1
  H  27  1  0.78037850  0.20307150  0.90510900  1
  H  28  1  0.63124500  0.98808800  0.94560800  1
  H  29  1  0.73897450  0.03638850  0.96475400  1
  H  30  1  0.85310550  0.05818150  0.92269600  1
  H  31  1  0.91409650  0.05322950  0.87229300  1
  H  32  1  0.97755650  0.24617350  0.84763200  1
  H  33  1  0.91906900  0.25237667  0.89799300  1
  H  34  1  0.97114650  0.25005950  0.97429100  1
  H  35  1  0.02310100  0.35871700  0.99071900  1
  H  36  1  0.84928250  0.35833850  0.98190100  1
  H  37  1  0.79525200  0.24744300  0.96875600  1
  H  38  1  0.77762450  0.12576350  0.02079800  1
  H  39  1  0.93976850  0.12816150  0.97485500  1
  H  40  1  0.95561250  0.08757350  0.03109500  1
  H  41  1  0.79286300  0.08347600  0.07625700  1
  H  67  1  0.48969950  0.33470550  0.22014400  1
  H  68  1  0.42934650  0.22564250  0.23840500  1
  H  69  1  0.36371450  0.37481550  0.27916800  1
  H  70  1  0.30425000  0.26704300  0.29825200  1
  H  71  1  0.21187350  0.15290750  0.25606100  1
  H  72  1  0.14595250  0.09196250  0.20564100  1
  H  73  1  0.27536250  0.02839650  0.18101800  1
  H  74  1  0.34000400  0.08683900  0.23139100  1
  H  75  1  0.28579950  0.03487750  0.30768800  1
  H  76  1  0.34259950  0.98297750  0.32402700  1
  H  77  1  0.51595750  0.15686350  0.31514400  1
  H  78  1  0.45900500  0.21083100  0.30206300  1
  H  79  1  0.35497550  0.22826550  0.35421200  1
  H  80  1  0.19514200  0.06625000  0.30824800  1
  H  81  1  0.13875200  0.05038600  0.36450600  1
  H  82  1  0.29750650  0.21301450  0.40968500  1
  H  108  1  0.85144550  0.51607950  0.55331800  1
  H  109  1  0.80284650  0.57649350  0.57164800  1
  H  110  1  0.01769050  0.64198550  0.61223400  1
  H  111  1  0.96950250  0.70150750  0.63139300  1
  H  112  1  0.94781950  0.79393550  0.58927100  1
  H  113  1  0.95278600  0.85999800  0.53893600  1
  H  114  1  0.75972250  0.73079850  0.51438800  1
  H  115  1  0.75353950  0.66601550  0.56467800  1
  H  116  1  0.75596150  0.72022550  0.64100200  1
  H  117  1  0.64732300  0.66356000  0.65746000  1
  H  118  1  0.64755450  0.49006950  0.64849100  1
  H  119  1  0.75843150  0.54688450  0.63530000  1
  H  120  1  0.88007550  0.65083150  0.68741300  1
  H  121  1  0.87793150  0.81073150  0.64152700  1
  H  122  1  0.91853550  0.86708950  0.69778200  1
  H  123  1  0.92237400  0.70827200  0.74289200  1
  H  149  1  0.36138650  0.85354050  0.92451200  1
  H  150  1  0.25165850  0.80009950  0.93962900  1
  H  151  1  0.35919950  0.02520150  0.91009800  1
  H  152  1  0.25074850  0.97355050  0.92793400  1
  H  153  1  0.10084350  0.92294950  0.94091000  1
  H  154  1  0.04523050  0.93257650  0.88959000  1
  H  155  1  0.09705750  0.82016150  0.82532800  1
  H  156  1  0.15069650  0.80786450  0.87664200  1
  H  157  1  0.04835000  0.73762200  0.92501900  1
  H  158  1  0.99940100  0.62887700  0.94145300  1
  H  159  1  0.14541700  0.67047500  0.01872700  1
  H  160  1  0.19542100  0.78068400  0.00260600  1
  H  161  1  0.25280750  0.94153950  0.00179100  1
  H  162  1  0.05284600  0.82260200  0.98994500  1
  H  163  1  0.03722600  0.86438200  0.04614700  1
  H  164  1  0.23621950  0.98366650  0.05680900  1
  H  190  1  0.49912500  0.64471900  0.25785600  1
  H  191  1  0.55544500  0.75446400  0.27291900  1
  H  192  1  0.67292650  0.64678650  0.24354700  1
  H  193  1  0.72976900  0.75526600  0.26133300  1
  H  194  1  0.82912750  0.90521150  0.27427500  1
  H  195  1  0.89445200  0.96071100  0.22295800  1
  H  196  1  0.73031250  0.90876650  0.15857100  1
  H  197  1  0.66429750  0.85525450  0.20988000  1
  H  198  1  0.69628600  0.95767800  0.25814900  1
  H  199  1  0.63647550  0.00667150  0.27447100  1
  H  200  1  0.53209750  0.86091850  0.35189700  1
  H  201  1  0.59228950  0.81085450  0.33587300  1
  H  202  1  0.69549650  0.75332050  0.33520200  1
  H  203  1  0.77678400  0.95328600  0.32320100  1
  H  204  1  0.83399750  0.96893450  0.37947800  1
  H  205  1  0.75399850  0.76993450  0.39030800  1
  H  231  1  0.15223500  0.50687600  0.59120100  1
  H  232  1  0.20573900  0.45066600  0.60633300  1
  H  233  1  0.98064600  0.33296000  0.57680600  1
  H  234  1  0.03236100  0.27622100  0.59466400  1
  H  235  1  0.08298350  0.17701250  0.60767800  1
  H  236  1  0.07334350  0.11170550  0.55640200  1
  H  237  1  0.18570250  0.27582550  0.49205900  1
  H  238  1  0.19801600  0.34184500  0.54332700  1
  H  239  1  0.26834950  0.30992150  0.59170100  1
  H  240  1  0.37711050  0.36978650  0.60811100  1
  H  241  1  0.33546000  0.47416900  0.68538800  1
  H  242  1  0.22524900  0.41390400  0.66928400  1
  H  243  1  0.06454500  0.31050600  0.66856100  1
  H  244  1  0.18340750  0.22941150  0.65664500  1
  H  245  1  0.14174100  0.17210100  0.71288300  1
  H  246  1  0.02255600  0.25189700  0.72362500  1
  H  261  1  0.82651200  0.38290600  0.08759500  1
  H  262  1  0.80414350  0.44199750  0.08773600  1
  H  263  1  0.86128250  0.44573450  0.11999200  1
  H  265  1  0.87692950  0.55518150  0.10833900  1
  H  266  1  0.90072150  0.61013350  0.07154900  1
  H  267  1  0.95783850  0.61401450  0.10360900  1
  H  282  1  0.56322650  0.17930650  0.42095700  1
  H  283  1  0.64469000  0.20170000  0.42110300  1
  H  284  1  0.59126350  0.14443350  0.45329800  1
  H  286  1  0.68510400  0.12887000  0.44159500  1
  H  287  1  0.71632550  0.10523350  0.40476700  1
  H  288  1  0.66306150  0.04798750  0.43676000  1
  H  303  1  0.62295300  0.44258100  0.75420600  1
  H  304  1  0.56383150  0.36113350  0.75430100  1
  H  305  1  0.56011450  0.41449250  0.78659800  1
  H  307  1  0.45064650  0.32075050  0.77490100  1
  H  308  1  0.39570650  0.28967850  0.73810300  1
  H  309  1  0.39184750  0.34287950  0.77019900  1
  H  324  1  0.45018100  0.63230700  0.15274700  1
  H  325  1  0.36825750  0.57463350  0.15305100  1
  H  326  1  0.41939950  0.57194250  0.11873500  1
  H  328  1  0.32430850  0.46279750  0.12912600  1
  H  329  1  0.29374150  0.40512850  0.16454900  1
  H  330  1  0.34469950  0.40241050  0.13036900  1
  H  345  1  0.37371700  0.81691900  0.81938900  1
  H  346  1  0.43142100  0.79270800  0.81969000  1
  H  347  1  0.43405000  0.84649100  0.78536100  1
  H  349  1  0.54322900  0.86061500  0.79572900  1
  H  350  1  0.60093250  0.88778750  0.83113500  1
  H  351  1  0.60358250  0.94140450  0.79693600  1
  H  366  1  0.18914650  0.55590950  0.48617200  1
  H  367  1  0.21331950  0.63781450  0.48648700  1
  H  368  1  0.15966550  0.58668750  0.45209900  1
  H  370  1  0.14545450  0.68169850  0.46243200  1
  H  371  1  0.11814900  0.71217000  0.49780000  1
  H  372  1  0.06465300  0.66123100  0.46354800  1
  H  387  1  0.90276650  0.25074350  0.13284900  1
  H  388  1  0.93038800  0.26301900  0.17894200  1
  H  389  1  0.84772850  0.22969750  0.16952500  1
  H  391  1  0.86386950  0.19536650  0.23242700  1
  H  392  1  0.89111950  0.14609950  0.25118500  1
  H  393  1  0.80919900  0.11419600  0.24095100  1
  H  408  1  0.35473250  0.10270850  0.46615800  1
  H  409  1  0.33945250  0.07515850  0.51226700  1
  H  410  1  0.38890800  0.15778300  0.50280400  1
  H  412  1  0.33861950  0.14183550  0.56574400  1
  H  413  1  0.26217650  0.11474450  0.58456500  1
  H  414  1  0.31229300  0.19663600  0.57429300  1
  H  429  1  0.75486400  0.65112200  0.79943000  1
  H  430  1  0.74259850  0.66648050  0.84552300  1
  H  431  1  0.77573900  0.61698300  0.83610800  1
  H  433  1  0.81007350  0.66737750  0.89902700  1
  H  434  1  0.85944850  0.74385250  0.91780500  1
  H  435  1  0.89118450  0.69368150  0.90760600  1
  H  450  1  0.09845250  0.74538850  0.11448300  1
  H  451  1  0.07077500  0.72568700  0.16040500  1
  H  452  1  0.15282250  0.75648750  0.15016000  1
  H  454  1  0.13878250  0.78037950  0.21625600  1
  H  455  1  0.11612050  0.82923850  0.24028600  1
  H  456  1  0.19725050  0.85832550  0.22903600  1
  H  471  1  0.65356300  0.90772100  0.44808400  1
  H  472  1  0.66156250  0.93535050  0.49402000  1
  H  473  1  0.61035450  0.85330650  0.48375600  1
  H  475  1  0.64834650  0.86731750  0.54983800  1
  H  476  1  0.71988450  0.88995750  0.57384000  1
  H  477  1  0.66784900  0.80884000  0.56255700  1
  H  492  1  0.26082100  0.35240800  0.78145800  1
  H  493  1  0.28040950  0.34436450  0.82739400  1
  H  494  1  0.24959900  0.39559800  0.81713400  1
  H  496  1  0.22556550  0.35755450  0.88320600  1
  H  497  1  0.17663900  0.28600700  0.90719100  1
  H  498  1  0.14757900  0.33805900  0.89590700  1
  N  253  1  0.91359900  0.44245200  0.04089500  1
  N  256  1  0.97416050  0.57025550  0.03845400  1
  N  257  1  0.04520600  0.44957500  0.93667200  1
  N  258  1  0.09934950  0.56226350  0.93551400  1
  N  274  1  0.53577550  0.09239950  0.37414000  1
  N  277  1  0.60305700  0.03188700  0.37159700  1
  N  278  1  0.41132200  0.96103900  0.26983800  1
  N  279  1  0.46990850  0.90693450  0.26858400  1
  N  295  1  0.56345750  0.47024350  0.70753700  1
  N  298  1  0.43565700  0.40306900  0.70507700  1
  N  299  1  0.55644950  0.59487450  0.60336700  1
  N  300  1  0.44376250  0.53639650  0.60220800  1
  N  316  1  0.47771000  0.56777200  0.19571400  1
  N  319  1  0.40802450  0.44007550  0.19500500  1
  N  320  1  0.60494350  0.54919150  0.29449400  1
  N  321  1  0.54431550  0.43661550  0.29268300  1
  N  337  1  0.43825550  0.90904150  0.86231900  1
  N  340  1  0.56595700  0.96711400  0.86156800  1
  N  341  1  0.45684050  0.05494250  0.96104000  1
  N  342  1  0.56941850  0.10698650  0.95917600  1
  N  358  1  0.09687550  0.52823850  0.52899500  1
  N  361  1  0.03875450  0.59781550  0.52815900  1
  N  362  1  0.95085050  0.40094950  0.62767900  1
  N  363  1  0.89877750  0.46144550  0.62573500  1
  N  379  1  0.88876600  0.14051500  0.13016500  1
  N  382  1  0.86040300  0.06976600  0.19146200  1
  N  383  1  0.86999300  0.95849700  0.06131800  1
  N  384  1  0.84659150  0.89674350  0.11597400  1
  N  400  1  0.25864850  0.11695050  0.46354500  1
  N  403  1  0.21652350  0.14552950  0.52488600  1
  N  404  1  0.09558100  0.13623400  0.39483400  1
  N  405  1  0.05744650  0.15977350  0.44951800  1
  N  421  1  0.86520850  0.74717450  0.79679200  1
  N  424  1  0.93591300  0.78936300  0.85813600  1
  N  425  1  0.04756000  0.91024800  0.72805300  1
  N  426  1  0.10923750  0.94839350  0.78274300  1
  N  442  1  0.11873850  0.85764850  0.12061000  1
  N  445  1  0.15148900  0.91686900  0.18606300  1
  N  446  1  0.14696550  0.05455150  0.06684100  1
  N  447  1  0.17757850  0.10785450  0.12460600  1
  N  463  1  0.74557850  0.88748350  0.45414000  1
  N  466  1  0.77213250  0.85468950  0.51956000  1
  N  467  1  0.91396200  0.85900600  0.40019700  1
  N  468  1  0.93672150  0.82835550  0.45790700  1
  N  484  1  0.14856400  0.26038900  0.78748000  1
  N  487  1  0.08915750  0.23381050  0.85288800  1
  N  488  1  0.95168550  0.09190350  0.73349700  1
  N  489  1  0.89822850  0.06916450  0.79120900  1
  S  259  1  0.10295500  0.50594000  0.91019900  1
  S  280  1  0.40992250  0.90332450  0.24332300  1
  S  301  1  0.50011150  0.59630150  0.57689100  1
  S  322  1  0.60585150  0.49002550  0.31830800  1
  S  343  1  0.51600650  0.11509250  0.98480900  1
  S  364  1  0.89070650  0.40000550  0.65143200  1
  S  385  1  0.85171650  0.88324450  0.07083900  1
  S  406  1  0.03878950  0.15474850  0.40439400  1
  S  427  1  0.12284700  0.96708100  0.73762200  1
  S  448  1  0.17134250  0.12929650  0.08125800  1
  S  469  1  0.96420000  0.83440800  0.41452300  1
  S  490  1  0.87686250  0.04162950  0.74782900  1
  Si  7  1  0.84533050  0.16208950  0.95385300  1
  Si  48  1  0.32353450  0.16065650  0.28723200  1
  Si  89  1  0.84385400  0.68233600  0.62046900  1
  Si  130  1  0.16382500  0.84809700  0.95039700  1
  Si  171  1  0.69128000  0.84227600  0.28368600  1
  Si  212  1  0.15784950  0.31485550  0.61710300  1
