# generated using pymatgen
data_Co3P2H6C12(NO5)2
_symmetry_space_group_name_H-M   'P 1'
_cell_length_a   8.71670000
_cell_length_b   9.75200000
_cell_length_c   13.86420000
_cell_angle_alpha   84.03000000
_cell_angle_beta   79.44600000
_cell_angle_gamma   73.02900000
_symmetry_Int_Tables_number   1
_chemical_formula_structural   Co3P2H6C12(NO5)2
_chemical_formula_sum   'Co6 P4 H12 C24 N4 O20'
_cell_volume   1106.53647642
_cell_formula_units_Z   2
loop_
 _symmetry_equiv_pos_site_id
 _symmetry_equiv_pos_as_xyz
  1  'x, y, z'
loop_
 _atom_site_type_symbol
 _atom_site_label
 _atom_site_symmetry_multiplicity
 _atom_site_fract_x
 _atom_site_fract_y
 _atom_site_fract_z
 _atom_site_occupancy
  Co  Co1  1  0.36193000  0.58415000  0.93975000  1.0
  Co  Co2  1  0.57720000  0.97889000  0.08848000  1.0
  Co  Co3  1  0.93989000  0.27548000  0.52239000  1.0
  Co  Co4  1  0.63807000  0.41585000  0.06025000  1.0
  Co  Co5  1  0.42280000  0.02111000  0.91152000  1.0
  Co  Co6  1  0.06011000  0.72452000  0.47761000  1.0
  P  P1  1  0.67010000  0.71806000  0.94862000  1.0
  P  P2  1  0.26487000  0.82752000  0.10086000  1.0
  P  P3  1  0.32990000  0.28194000  0.05138000  1.0
  P  P4  1  0.73513000  0.17248000  0.89914000  1.0
  H  H1  1  0.99410000  0.69730000  0.96880000  1.0
  H  H2  1  0.80160000  0.52020000  0.78780000  1.0
  H  H3  1  0.28350000  0.40280000  0.79410000  1.0
  H  H4  1  0.94790000  0.86960000  0.05800000  1.0
  H  H5  1  0.11970000  0.04390000  0.25160000  1.0
  H  H6  1  0.64500000  0.16650000  0.22510000  1.0
  H  H7  1  0.00590000  0.30270000  0.03120000  1.0
  H  H8  1  0.19840000  0.47980000  0.21220000  1.0
  H  H9  1  0.71650000  0.59720000  0.20590000  1.0
  H  H10  1  0.05210000  0.13040000  0.94200000  1.0
  H  H11  1  0.88030000  0.95610000  0.74840000  1.0
  H  H12  1  0.35500000  0.83350000  0.77490000  1.0
  C  C1  1  0.00780000  0.63110000  0.92020000  1.0
  C  C2  1  0.86910000  0.61990000  0.88870000  1.0
  C  C3  1  0.89210000  0.52730000  0.81400000  1.0
  C  C4  1  0.04730000  0.44560000  0.77800000  1.0
  C  C5  1  0.17730000  0.46080000  0.81710000  1.0
  C  C6  1  0.07500000  0.34620000  0.69620000  1.0
  C  C7  1  0.92980000  0.93510000  0.10770000  1.0
  C  C8  1  0.06340000  0.94250000  0.14620000  1.0
  C  C9  1  0.03320000  0.03730000  0.22110000  1.0
  C  C10  1  0.87550000  0.12190000  0.25060000  1.0
  C  C11  1  0.75210000  0.10750000  0.20560000  1.0
  C  C12  1  0.83060000  0.21950000  0.33500000  1.0
  C  C13  1  0.99220000  0.36890000  0.07980000  1.0
  C  C14  1  0.13090000  0.38010000  0.11130000  1.0
  C  C15  1  0.10790000  0.47270000  0.18600000  1.0
  C  C16  1  0.95270000  0.55440000  0.22200000  1.0
  C  C17  1  0.82270000  0.53920000  0.18290000  1.0
  C  C18  1  0.92500000  0.65380000  0.30380000  1.0
  C  C19  1  0.07020000  0.06490000  0.89230000  1.0
  C  C20  1  0.93660000  0.05750000  0.85380000  1.0
  C  C21  1  0.96680000  0.96270000  0.77890000  1.0
  C  C22  1  0.12450000  0.87810000  0.74940000  1.0
  C  C23  1  0.24790000  0.89250000  0.79440000  1.0
  C  C24  1  0.16940000  0.78050000  0.66500000  1.0
  N  N1  1  0.15910000  0.55410000  0.88600000  1.0
  N  N2  1  0.77620000  0.01470000  0.13630000  1.0
  N  N3  1  0.84090000  0.44590000  0.11400000  1.0
  N  N4  1  0.22380000  0.98530000  0.86370000  1.0
  O  O1  1  0.58310000  0.82210000  0.87347000  1.0
  O  O2  1  0.70430000  0.78500000  0.03276000  1.0
  O  O3  1  0.57930000  0.60230000  0.98241000  1.0
  O  O4  1  0.96370000  0.37550000  0.64387000  1.0
  O  O5  1  0.20270000  0.24410000  0.68421000  1.0
  O  O6  1  0.33030000  0.74200000  0.19089000  1.0
  O  O7  1  0.23360000  0.73620000  0.02807000  1.0
  O  O8  1  0.36800000  0.92650000  0.05397000  1.0
  O  O9  1  0.71240000  0.32870000  0.33533000  1.0
  O  O10  1  0.91610000  0.17600000  0.40300000  1.0
  O  O11  1  0.41690000  0.17790000  0.12653000  1.0
  O  O12  1  0.29570000  0.21500000  0.96724000  1.0
  O  O13  1  0.42070000  0.39770000  0.01759000  1.0
  O  O14  1  0.03630000  0.62450000  0.35613000  1.0
  O  O15  1  0.79730000  0.75590000  0.31579000  1.0
  O  O16  1  0.66970000  0.25800000  0.80911000  1.0
  O  O17  1  0.76640000  0.26380000  0.97193000  1.0
  O  O18  1  0.63200000  0.07350000  0.94603000  1.0
  O  O19  1  0.28760000  0.67130000  0.66467000  1.0
  O  O20  1  0.08390000  0.82400000  0.59700000  1.0
