# generated using pymatgen
data_GdH3C6O7
_symmetry_space_group_name_H-M   'P 1'
_cell_length_a   6.08670000
_cell_length_b   9.48300000
_cell_length_c   10.09600000
_cell_angle_alpha   88.61200000
_cell_angle_beta   74.38500000
_cell_angle_gamma   77.13200000
_symmetry_Int_Tables_number   1
_chemical_formula_structural   GdH3C6O7
_chemical_formula_sum   'Gd2 H6 C12 O14'
_cell_volume   546.74391419
_cell_formula_units_Z   2
loop_
 _symmetry_equiv_pos_site_id
 _symmetry_equiv_pos_as_xyz
  1  'x, y, z'
loop_
 _atom_site_type_symbol
 _atom_site_label
 _atom_site_symmetry_multiplicity
 _atom_site_fract_x
 _atom_site_fract_y
 _atom_site_fract_z
 _atom_site_occupancy
  Gd  Gd1  1  0.34520000  0.94175000  0.70299000  1.0
  Gd  Gd2  1  0.65480000  0.05825000  0.29701000  1.0
  H  H1  1  0.73300000  0.11630000  0.70460000  1.0
  H  H2  1  0.37840000  0.96860000  0.35140000  1.0
  H  H3  1  0.26700000  0.88370000  0.29540000  1.0
  H  H4  1  0.62160000  0.03140000  0.64860000  1.0
  H  H5  1  0.27150000  0.44150000  0.62620000  1.0
  H  H6  1  0.72850000  0.55850000  0.37380000  1.0
  C  C1  1  0.19200000  0.72170000  0.59220000  1.0
  C  C2  1  0.09300000  0.60860000  0.54470000  1.0
  C  C3  1  0.80800000  0.27830000  0.40780000  1.0
  C  C4  1  0.92700000  0.64120000  0.46610000  1.0
  C  C5  1  0.16100000  0.20640000  0.57750000  1.0
  C  C6  1  0.07300000  0.04740000  0.01660000  1.0
  C  C7  1  0.07300000  0.35880000  0.53390000  1.0
  C  C8  1  0.83800000  0.53410000  0.42430000  1.0
  C  C9  1  0.16200000  0.46590000  0.57570000  1.0
  C  C10  1  0.92700000  0.95260000  0.98340000  1.0
  C  C11  1  0.83900000  0.79360000  0.42250000  1.0
  C  C12  1  0.90700000  0.39140000  0.45530000  1.0
  O  O1  1  0.00460000  0.10590000  0.13920000  1.0
  O  O2  1  0.66350000  0.87630000  0.50210000  1.0
  O  O3  1  0.67340000  0.31150000  0.33110000  1.0
  O  O4  1  0.06290000  0.16990000  0.69330000  1.0
  O  O5  1  0.86520000  0.14760000  0.44210000  1.0
  O  O6  1  0.99540000  0.89410000  0.86080000  1.0
  O  O7  1  0.39820000  0.90400000  0.28980000  1.0
  O  O8  1  0.25280000  0.06210000  0.92620000  1.0
  O  O9  1  0.74720000  0.93790000  0.07380000  1.0
  O  O10  1  0.13480000  0.85240000  0.55790000  1.0
  O  O11  1  0.32660000  0.68850000  0.66890000  1.0
  O  O12  1  0.33650000  0.12370000  0.49790000  1.0
  O  O13  1  0.60180000  0.09600000  0.71020000  1.0
  O  O14  1  0.93710000  0.83010000  0.30670000  1.0
