# generated using pymatgen
data_H34C55(N3O2)2
_symmetry_space_group_name_H-M   'P 1'
_cell_length_a   21.88600000
_cell_length_b   21.88600000
_cell_length_c   65.35080000
_cell_angle_alpha   89.99770000
_cell_angle_beta   89.99890000
_cell_angle_gamma   60.00000000
_symmetry_Int_Tables_number   1
_chemical_formula_structural   H34C55(N3O2)2
_chemical_formula_sum   'H102 C165 N18 O12'
_cell_volume   27109.05193211
_cell_formula_units_Z   3
loop_
 _symmetry_equiv_pos_site_id
 _symmetry_equiv_pos_as_xyz
  1  'x, y, z'
loop_
 _atom_site_type_symbol
 _atom_site_label
 _atom_site_symmetry_multiplicity
 _atom_site_fract_x
 _atom_site_fract_y
 _atom_site_fract_z
 _atom_site_occupancy
  C  1  1  0.00396000  0.99524200  0.07687000  1
  C  2  1  0.99504400  0.00402200  0.59081900  1
  C  7  1  0.99757900  0.00632100  0.70616300  1
  C  8  1  0.98627400  0.02958900  0.88793600  1
  C  9  1  0.92983500  0.07281500  0.87465400  1
  C  10  1  0.94102600  0.06677900  0.85324800  1
  C  11  1  0.00729900  0.01831450  0.84472000  1
  C  12  1  0.06341200  0.97700500  0.85829400  1
  C  13  1  0.05317200  0.98246050  0.87959500  1
  C  16  1  0.01537700  0.00801400  0.82310700  1
  C  17  1  0.98608300  0.06568450  0.80930600  1
  C  18  1  0.98979000  0.05477350  0.78800300  1
  C  19  1  0.02289000  0.98562400  0.77996900  1
  C  46  1  0.05767200  0.91376400  0.00040400  1
  C  47  1  0.13250800  0.87787000  0.00051700  1
  C  48  1  0.13191000  0.99334000  0.00073300  1
  C  49  1  0.05704100  0.03166000  0.00071300  1
  C  50  1  0.02269700  0.10675100  0.00087900  1
  C  51  1  0.06062600  0.14355100  0.00094900  1
  C  52  1  0.13516200  0.10328650  0.00111400  1
  C  53  1  0.17018000  0.02948800  0.00093500  1
  C  54  1  0.17135600  0.80348950  0.00045900  1
  C  55  1  0.13696200  0.76412400  0.00025400  1
  C  56  1  0.06240200  0.79761800  0.00015600  1
  C  57  1  0.02398700  0.87239900  0.00021100  1
  C  58  1  0.97229800  0.01448400  0.02015300  1
  C  59  1  0.89745300  0.05229150  0.01978300  1
  C  60  1  0.89755700  0.05242550  0.98123300  1
  C  61  1  0.97241800  0.01535150  0.98090400  1
  C  62  1  0.85924800  0.07133450  0.96272400  1
  C  63  1  0.89424400  0.05440100  0.94386600  1
  C  64  1  0.96877600  0.01839250  0.94288800  1
  C  65  1  0.00672200  0.99891350  0.96153900  1
  C  66  1  0.00647900  0.99645900  0.03953800  1
  C  67  1  0.96850000  0.01470650  0.05819100  1
  C  68  1  0.89395000  0.05322350  0.05714600  1
  C  69  1  0.85905500  0.07157450  0.03827200  1
  C  82  1  0.01489600  0.99377700  0.00054000  1
  C  83  1  0.85665500  0.07284100  0.00049700  1
  C  86  1  0.17299200  0.91537300  0.00066300  1
  C  89  1  0.00413900  0.00117150  0.92422400  1
  C  90  1  0.02783600  0.75851550  0.99958600  1
  C  95  1  0.02588100  0.21701400  0.00160500  1
  C  97  1  0.91391600  0.02926250  0.33405300  1
  C  98  1  0.87796400  0.99036750  0.33407400  1
  C  99  1  0.99330900  0.87549400  0.33298100  1
  C  100  1  0.03172000  0.91194850  0.33324800  1
  C  101  1  0.10679000  0.87114350  0.33270800  1
  C  102  1  0.14343400  0.79647050  0.33195800  1
  C  103  1  0.10308000  0.76231600  0.33148500  1
  C  104  1  0.02931700  0.80113900  0.33209900  1
  C  105  1  0.80361700  0.02590100  0.33472000  1
  C  106  1  0.76433100  0.09963300  0.33533600  1
  C  107  1  0.79787100  0.14064550  0.33517600  1
  C  108  1  0.87261600  0.10429950  0.33459700  1
  C  109  1  0.01615400  0.01209000  0.35336200  1
  C  110  1  0.05399500  0.04910450  0.35305600  1
  C  111  1  0.05141800  0.05205700  0.31451800  1
  C  112  1  0.01407000  0.01454850  0.31411600  1
  C  113  1  0.06939300  0.07261900  0.29605000  1
  C  114  1  0.05160000  0.05563900  0.27715700  1
  C  115  1  0.01554100  0.01718950  0.27611500  1
  C  116  1  0.99656800  0.99797150  0.29471900  1
  C  117  1  0.99904000  0.99482650  0.37272400  1
  C  118  1  0.01800800  0.01367600  0.39141100  1
  C  119  1  0.05679700  0.04943500  0.39041900  1
  C  120  1  0.07439500  0.06691200  0.37157300  1
  C  133  1  0.99392700  0.99196300  0.33370400  1
  C  134  1  0.07327600  0.07085700  0.33381700  1
  C  137  1  0.91536700  0.91241700  0.33347000  1
  C  140  1  0.99813000  0.99949850  0.25742500  1
  C  141  1  0.75877500  0.21426650  0.33593300  1
  C  142  1  0.99867000  0.99748450  0.41008100  1
  C  146  1  0.21683900  0.75764850  0.33108700  1
  C  148  1  0.02908900  0.05753100  0.66702600  1
  C  149  1  0.99017600  0.13237000  0.66714900  1
  C  150  1  0.87527400  0.13183450  0.66736600  1
  C  151  1  0.91179500  0.05696750  0.66733800  1
  C  152  1  0.87101900  0.02265400  0.66750200  1
  C  153  1  0.79629400  0.06061050  0.66757900  1
  C  154  1  0.76204800  0.13514450  0.66774900  1
  C  155  1  0.80085800  0.17013150  0.66757700  1
  C  156  1  0.02573000  0.17119350  0.66710000  1
  C  157  1  0.09949400  0.13676850  0.66689600  1
  C  158  1  0.14053300  0.06220900  0.66678600  1
  C  159  1  0.10414200  0.02381800  0.66683100  1
  C  160  1  0.01369900  0.97217350  0.68677400  1
  C  161  1  0.05067800  0.89732900  0.68639700  1
  C  162  1  0.05041900  0.89747150  0.64784700  1
  C  163  1  0.01268600  0.97232900  0.64751600  1
  C  164  1  0.06977400  0.85916100  0.62933900  1
  C  165  1  0.05170400  0.89415300  0.61047900  1
  C  166  1  0.01322600  0.96868750  0.60949500  1
  C  167  1  0.99481800  0.00663250  0.62814800  1
  C  169  1  0.01728400  0.96831650  0.72481400  1
  C  170  1  0.05326000  0.89377300  0.72376200  1
  C  171  1  0.06976900  0.85890800  0.70488400  1
  C  184  1  0.99182100  0.01478350  0.66715900  1
  C  185  1  0.07088800  0.85655450  0.66711000  1
  C  188  1  0.91218800  0.17288500  0.66730000  1
  C  192  1  0.21420400  0.02762550  0.66621400  1
  C  193  1  0.00133200  0.00374100  0.74350100  1
  C  197  1  0.75756100  0.02588500  0.66823400  1
  C  199  1  0.05318700  0.92801350  0.79358550  1
  C  200  1  0.04931400  0.93899000  0.81483500  1
  C  204  1  0.02851700  0.98639350  0.22129000  1
  C  205  1  0.07214200  0.99904050  0.20801100  1
  C  206  1  0.06649100  0.99332000  0.18661100  1
  C  207  1  0.01808900  0.97540900  0.17809400  1
  C  208  1  0.97653600  0.96096100  0.19167500  1
  C  209  1  0.98156800  0.96636500  0.21296500  1
  C  212  1  0.00795100  0.97734150  0.15648000  1
  C  213  1  0.06569700  0.94879900  0.14270500  1
  C  214  1  0.05488900  0.95584050  0.12139600  1
  C  215  1  0.98577500  0.99187800  0.11333800  1
  C  216  1  0.92809200  0.01934450  0.12692600  1
  C  217  1  0.93896600  0.01241600  0.14817900  1
  C  228  1  0.98483200  0.98580550  0.55451500  1
  C  229  1  0.99812100  0.92920000  0.54129400  1
  C  230  1  0.99309800  0.94011500  0.51987600  1
  C  231  1  0.97534600  0.00627150  0.51127000  1
  C  232  1  0.96046500  0.06255450  0.52478600  1
  C  233  1  0.96512100  0.05258950  0.54610100  1
  C  236  1  0.97783600  0.01399900  0.48964500  1
  C  237  1  0.94983500  0.98429700  0.47585300  1
  C  238  1  0.95749700  0.98748800  0.45455200  1
  C  239  1  0.99362200  0.02048900  0.44650700  1
  C  240  1  0.02048000  0.05127400  0.46010500  1
  C  241  1  0.01295600  0.04787900  0.48135300  1
  C  252  1  0.05282000  0.63614100  0.00159000  1
  C  253  1  0.11261300  0.56924450  0.00548200  1
  C  254  1  0.10649000  0.50809100  0.00395700  1
  C  255  1  0.04216600  0.51179600  0.99850300  1
  C  256  1  0.98253200  0.57921300  0.99525700  1
  C  257  1  0.98785000  0.64064250  0.99663200  1
  C  260  1  0.03919300  0.44855600  0.99605850  1
  C  261  1  0.09163900  0.39174500  0.98452900  1
  C  262  1  0.09424800  0.32634450  0.98380250  1
  C  263  1  0.04423200  0.31585400  0.99443750  1
  C  264  1  0.99010000  0.37294250  0.00539900  1
  C  265  1  0.98740400  0.43867000  0.00607400  1
  C  276  1  0.63653100  0.31152050  0.33302700  1
  C  277  1  0.57007300  0.31822000  0.32867900  1
  C  278  1  0.50868900  0.38545700  0.32977100  1
  C  279  1  0.51173800  0.44642250  0.33523400  1
  C  280  1  0.57876800  0.43899550  0.33897200  1
  C  281  1  0.64042000  0.37229550  0.33802700  1
  C  284  1  0.44818800  0.51259550  0.33727500  1
  C  285  1  0.39069800  0.51711050  0.34847200  1
  C  286  1  0.32527100  0.57990050  0.34892500  1
  C  287  1  0.31541200  0.64025100  0.33833400  1
  C  288  1  0.37306600  0.63712150  0.32765800  1
  C  289  1  0.43883400  0.57407800  0.32726000  1
  C  300  1  0.31157800  0.05266000  0.66820600  1
  C  301  1  0.31861600  0.11250200  0.67207300  1
  C  302  1  0.38587400  0.10642150  0.67055300  1
  C  303  1  0.44653800  0.04209100  0.66512700  1
  C  304  1  0.43881400  0.98241100  0.66190500  1
  C  305  1  0.37208800  0.98768200  0.66327600  1
  C  308  1  0.51273700  0.03915800  0.66269000  1
  C  309  1  0.51709400  0.09159500  0.65115200  1
  C  310  1  0.57987300  0.09423100  0.65042700  1
  C  311  1  0.64037300  0.04424700  0.66107100  1
  C  312  1  0.63742400  0.99012600  0.67204200  1
  C  313  1  0.57440600  0.98740600  0.67271700  1
  H  5  1  0.05421900  0.96285150  0.92356700  1
  H  14  1  0.11229400  0.94150100  0.85276600  1
  H  15  1  0.09452400  0.95040000  0.88887900  1
  H  20  1  0.96144300  0.11641250  0.81466200  1
  H  21  1  0.96759400  0.09755000  0.77848300  1
  H  22  1  0.89891800  0.09615500  0.84384400  1
  H  70  1  0.86377700  0.06838250  0.07013400  1
  H  71  1  0.80502400  0.09908100  0.03813700  1
  H  72  1  0.80521700  0.09774250  0.96283300  1
  H  73  1  0.86425000  0.06876700  0.93084100  1
  H  74  1  0.06074000  0.97240300  0.96109100  1
  H  75  1  0.06049200  0.96887200  0.03998700  1
  H  76  1  0.96869400  0.13515900  0.00089100  1
  H  77  1  0.16517000  0.12715800  0.00155500  1
  H  78  1  0.22421300  0.00217950  0.00108500  1
  H  79  1  0.96999800  0.89768250  0.00010500  1
  H  80  1  0.22539200  0.77720250  0.00048700  1
  H  81  1  0.16762400  0.71031150  0.00004500  1
  H  84  1  0.82278200  0.04927800  0.00048100  1
  H  85  1  0.82289200  0.13028750  0.00050100  1
  H  87  1  0.20697000  0.89875450  0.98712100  1
  H  88  1  0.20666800  0.89843500  0.01426800  1
  H  92  1  0.05589600  0.97545250  0.07728600  1
  H  94  1  0.97619700  0.78244500  0.99704850  1
  H  96  1  0.97796400  0.24378250  0.00770500  1
  H  121  1  0.07253800  0.06373350  0.40343100  1
  H  122  1  0.10194100  0.09339800  0.37148100  1
  H  123  1  0.09601000  0.10003300  0.29621400  1
  H  124  1  0.06553600  0.07180200  0.26415300  1
  H  125  1  0.97009500  0.97043450  0.29420500  1
  H  126  1  0.97123900  0.96861750  0.37313700  1
  H  127  1  0.13528500  0.89664700  0.33285800  1
  H  128  1  0.12686400  0.70851100  0.33055800  1
  H  129  1  0.00192700  0.77450600  0.33174500  1
  H  130  1  0.89790900  0.13299800  0.33459700  1
  H  131  1  0.77730900  0.99817600  0.33483500  1
  H  132  1  0.71054900  0.12280850  0.33598150  1
  H  135  1  0.04986200  0.12826350  0.33417000  1
  H  136  1  0.13072600  0.04705300  0.33351400  1
  H  138  1  0.89744900  0.89675050  0.31985100  1
  H  139  1  0.89966100  0.89405250  0.34698600  1
  H  143  1  0.97972900  0.96462300  0.41050800  1
  H  144  1  0.95866700  0.98942950  0.25666300  1
  H  145  1  0.78245900  0.24188800  0.33898100  1
  H  147  1  0.24359000  0.77882350  0.32499100  1
  H  172  1  0.06825000  0.86358550  0.73674700  1
  H  173  1  0.09625000  0.80487550  0.70474400  1
  H  174  1  0.09735400  0.80513200  0.62944800  1
  H  175  1  0.06728900  0.86414250  0.59745900  1
  H  176  1  0.96733200  0.06065250  0.62770000  1
  H  177  1  0.97119300  0.06033450  0.70661900  1
  H  178  1  0.89659600  0.96865100  0.66751000  1
  H  179  1  0.70816900  0.16517300  0.66819500  1
  H  180  1  0.77415500  0.22416600  0.66772900  1
  H  181  1  0.13283000  0.96982850  0.66671700  1
  H  182  1  0.99800200  0.22522750  0.66713600  1
  H  183  1  0.12265900  0.16741750  0.66666667  1
  H  186  1  0.12831600  0.82264100  0.66708900  1
  H  187  1  0.04716200  0.82282950  0.66711200  1
  H  189  1  0.89483300  0.20688750  0.65376400  1
  H  190  1  0.89547600  0.20653950  0.68091000  1
  H  194  1  0.96923000  0.05568400  0.74391600  1
  H  195  1  0.98285900  0.05422800  0.59016100  1
  H  196  1  0.24191900  0.97595950  0.66371600  1
  H  198  1  0.77867100  0.97799400  0.67435000  1
  H  201  1  0.07685000  0.87735100  0.78815100  1
  H  202  1  0.06940000  0.89577000  0.82421000  1
  H  210  1  0.94109800  0.94748250  0.18615400  1
  H  211  1  0.94934300  0.95730500  0.22224700  1
  H  218  1  0.11639600  0.92274450  0.14808600  1
  H  219  1  0.09770400  0.93517450  0.11189200  1
  H  220  1  0.87745900  0.04635600  0.12146900  1
  H  221  1  0.89569600  0.03569700  0.15753100  1
  H  222  1  0.09606800  0.00576400  0.17720000  1
  H  234  1  0.94715400  0.11135550  0.51920600  1
  H  235  1  0.95582500  0.09404050  0.55534100  1
  H  242  1  0.92372800  0.95968700  0.48121900  1
  H  243  1  0.93718800  0.96500950  0.44504000  1
  H  244  1  0.04750900  0.07489750  0.45466000  1
  H  245  1  0.03584400  0.06824700  0.49071800  1
  H  246  1  0.00591400  0.89787250  0.51052300  1
  H  258  1  0.93534400  0.58393550  0.99101900  1
  H  259  1  0.94443000  0.68841300  0.99347550  1
  H  266  1  0.12995800  0.39674350  0.97701450  1
  H  267  1  0.13487300  0.28548200  0.97608400  1
  H  268  1  0.95459200  0.36609050  0.01380900  1
  H  269  1  0.94979100  0.47790900  0.01498500  1
  H  270  1  0.15022800  0.46009150  0.00679300  1
  H  282  1  0.58298000  0.48172650  0.34324200  1
  H  283  1  0.68787100  0.36823250  0.34148600  1
  H  290  1  0.39530900  0.47396550  0.35599400  1
  H  291  1  0.28403100  0.58031650  0.35647000  1
  H  292  1  0.36671100  0.67944150  0.31932300  1
  H  293  1  0.47863700  0.57233650  0.31860200  1
  H  294  1  0.46100400  0.38943100  0.32661100  1
  H  306  1  0.48131300  0.93521750  0.65768900  1
  H  307  1  0.36777800  0.94422850  0.66013700  1
  H  314  1  0.47378300  0.12988700  0.64362800  1
  H  315  1  0.58010600  0.13484450  0.64269900  1
  H  316  1  0.67977900  0.95463850  0.68045700  1
  H  317  1  0.57278300  0.94980200  0.68163400  1
  H  318  1  0.39009000  0.15019500  0.67337200  1
  N  23  1  0.86266600  0.11991850  0.88304200  1
  N  25  1  0.97187300  0.03285300  0.90774300  1
  N  26  1  0.02703900  0.96996000  0.76028300  1
  N  223  1  0.11917700  0.01921800  0.21638800  1
  N  226  1  0.03139600  0.99808550  0.24107800  1
  N  227  1  0.97017900  0.00331750  0.09365000  1
  N  247  1  0.01815900  0.86213000  0.54975550  1
  N  250  1  0.99593100  0.97162300  0.57433400  1
  N  251  1  0.00550200  0.02422800  0.42682700  1
  N  271  1  0.17781900  0.56460850  0.01051650  1
  N  274  1  0.06270800  0.69115150  0.00170300  1
  N  275  1  0.05700500  0.25003700  0.99525600  1
  N  295  1  0.56606400  0.25730700  0.32364300  1
  N  298  1  0.69170100  0.24674050  0.33316100  1
  N  299  1  0.24976800  0.69354100  0.33746000  1
  N  319  1  0.25800300  0.17771150  0.67707700  1
  N  322  1  0.24670000  0.06249750  0.66831200  1
  N  323  1  0.69341700  0.05702300  0.66188100  1
  O  24  1  0.81672900  0.10539800  0.87715900  1
  O  203  1  0.84298800  0.18272750  0.87830600  1
  O  224  1  0.10490600  0.07946400  0.21036500  1
  O  225  1  0.18204800  0.97585150  0.21178300  1
  O  248  1  0.07865400  0.81613450  0.54391700  1
  O  249  1  0.97506600  0.84238150  0.54504300  1
  O  272  1  0.19913400  0.53750200  0.02787050  1
  O  273  1  0.22464600  0.52894950  0.99753550  1
  O  296  1  0.54039800  0.26222650  0.30611400  1
  O  297  1  0.52947200  0.24656250  0.33639500  1
  O  320  1  0.26371700  0.19913400  0.69442100  1
  O  321  1  0.24684200  0.22447800  0.66407300  1
