# generated using pymatgen
data_Na2ZnH4(C6O5)2
_symmetry_space_group_name_H-M   'P 1'
_cell_length_a   15.74578000
_cell_length_b   17.59264479
_cell_length_c   17.81975000
_cell_angle_alpha   111.23345222
_cell_angle_beta   107.15629000
_cell_angle_gamma   107.30572495
_symmetry_Int_Tables_number   1
_chemical_formula_structural   Na2ZnH4(C6O5)2
_chemical_formula_sum   'Na12 Zn6 H24 C72 O60'
_cell_volume   3917.32081562
_cell_formula_units_Z   6
loop_
 _symmetry_equiv_pos_site_id
 _symmetry_equiv_pos_as_xyz
  1  'x, y, z'
loop_
 _atom_site_type_symbol
 _atom_site_label
 _atom_site_symmetry_multiplicity
 _atom_site_fract_x
 _atom_site_fract_y
 _atom_site_fract_z
 _atom_site_occupancy
  Na  Na0  1  0.58705000  0.67049000  0.33333000  1
  Na  Na1  1  0.72540000  0.95450000  0.47727000  1
  Na  Na2  1  0.24627000  0.66283000  0.33333000  1
  Na  Na3  1  0.25187000  0.52277000  0.47728000  1
  Na  Na4  1  0.91288000  0.66288000  0.32577000  1
  Na  Na5  1  0.77274000  0.52274000  0.04548000  1
  Na  Na6  1  0.41295000  0.32951000  0.66668000  1
  Na  Na7  1  0.27459000  0.04549000  0.52272000  1
  Na  Na8  1  0.75373000  0.33717000  0.66668000  1
  Na  Na9  1  0.74813000  0.47723000  0.52273000  1
  Na  Na10  1  0.08712000  0.33712000  0.67424000  1
  Na  Na11  1  0.22726000  0.47726000  0.95452000  1
  Zn  Zn12  1  0.74801000  0.59856000  0.39607000  1
  Zn  Zn13  1  0.35093000  0.60094000  0.20181000  1
  Zn  Zn14  1  0.14806000  0.79751000  0.39606000  1
  Zn  Zn15  1  0.25199000  0.40144000  0.60394000  1
  Zn  Zn16  1  0.64907000  0.39906000  0.79820000  1
  Zn  Zn17  1  0.85195000  0.20249000  0.60394000  1
  H  H18  1  0.14502000  0.05757000  0.66482000  1
  H  H19  1  0.06162000  0.86760000  0.56882000  1
  H  H20  1  0.47945000  0.33315000  0.39582000  1
  H  H21  1  0.48893000  0.42560000  0.29869000  1
  H  H22  1  0.08544000  0.60672000  0.94069000  1
  H  H23  1  0.19103000  0.70018000  0.12751000  1
  H  H24  1  0.41637000  0.06267000  0.39583000  1
  H  H25  1  0.30975000  0.87309000  0.29869000  1
  H  H26  1  0.35525000  0.33397000  0.94070000  1
  H  H27  1  0.43648000  0.42733000  0.12752000  1
  H  H28  1  0.01979000  0.60724000  0.66482000  1
  H  H29  1  0.00720000  0.70122000  0.56882000  1
  H  H30  1  0.85498000  0.94243000  0.33519000  1
  H  H31  1  0.93838000  0.13240000  0.43119000  1
  H  H32  1  0.52054000  0.66684000  0.60417000  1
  H  H33  1  0.51106000  0.57439000  0.70131000  1
  H  H34  1  0.91455000  0.39327000  0.05931000  1
  H  H35  1  0.80897000  0.29982000  0.87249000  1
  H  H36  1  0.58363000  0.93733000  0.60418000  1
  H  H37  1  0.69024000  0.12690000  0.70130000  1
  H  H38  1  0.64475000  0.66603000  0.05930000  1
  H  H39  1  0.56352000  0.57267000  0.87249000  1
  H  H40  1  0.98021000  0.39276000  0.33519000  1
  H  H41  1  0.99280000  0.29878000  0.43119000  1
  C  C42  1  0.83737000  0.78843000  0.45954000  1
  C  C43  1  0.98178000  0.11636000  0.62262000  1
  C  C44  1  0.98998000  0.03033000  0.59917000  1
  C  C45  1  0.06742000  0.00813000  0.61981000  1
  C  C46  1  0.02458000  0.91080000  0.57123000  1
  C  C47  1  0.92346000  0.87901000  0.52340000  1
  C  C48  1  0.37523000  0.53762000  0.32800000  1
  C  C49  1  0.36277000  0.38053000  0.49912000  1
  C  C50  1  0.39171000  0.40118000  0.43461000  1
  C  C51  1  0.44677000  0.37842000  0.39095000  1
  C  C52  1  0.45107000  0.42532000  0.34058000  1
  C  C53  1  0.39860000  0.47450000  0.35645000  1
  C  C54  1  0.04572000  0.67052000  0.20767000  1
  C  C55  1  0.86453000  0.50506000  0.88368000  1
  C  C56  1  0.95773000  0.56842000  0.96841000  1
  C  C57  1  0.05695000  0.61122000  0.98972000  1
  C  C58  1  0.11109000  0.65980000  0.08568000  1
  C  C59  1  0.04194000  0.64399000  0.11790000  1
  C  C60  1  0.45278000  0.79040000  0.32802000  1
  C  C61  1  0.63635000  0.11859000  0.49912000  1
  C  C62  1  0.54290000  0.03343000  0.43462000  1
  C  C63  1  0.44418000  0.01253000  0.39095000  1
  C  C64  1  0.38952000  0.91527000  0.34059000  1
  C  C65  1  0.45786000  0.88196000  0.35646000  1
  C  C66  1  0.66195000  0.53715000  0.20767000  1
  C  C67  1  0.51914000  0.37861000  0.88369000  1
  C  C68  1  0.51067000  0.39999000  0.96842000  1
  C  C69  1  0.43277000  0.37850000  0.98973000  1
  C  C70  1  0.47459000  0.42588000  0.08569000  1
  C  C71  1  0.57596000  0.47391000  0.11791000  1
  C  C72  1  0.12217000  0.67111000  0.45954000  1
  C  C73  1  0.14084000  0.50625000  0.62262000  1
  C  C74  1  0.10918000  0.56883000  0.59917000  1
  C  C75  1  0.05239000  0.61167000  0.61980000  1
  C  C76  1  0.04665000  0.66043000  0.57124000  1
  C  C77  1  0.09994000  0.64439000  0.52340000  1
  C  C78  1  0.16264000  0.21157000  0.54047000  1
  C  C79  1  0.01822000  0.88364000  0.37738000  1
  C  C80  1  0.01001000  0.96966000  0.40082000  1
  C  C81  1  0.93258000  0.99187000  0.38020000  1
  C  C82  1  0.97542000  0.08920000  0.42878000  1
  C  C83  1  0.07654000  0.12099000  0.47661000  1
  C  C84  1  0.62476000  0.46237000  0.67199000  1
  C  C85  1  0.63723000  0.61947000  0.50088000  1
  C  C86  1  0.60828000  0.59881000  0.56539000  1
  C  C87  1  0.55323000  0.62158000  0.60905000  1
  C  C88  1  0.54893000  0.57468000  0.65942000  1
  C  C89  1  0.60140000  0.52550000  0.64356000  1
  C  C90  1  0.95428000  0.32948000  0.79233000  1
  C  C91  1  0.13546000  0.49493000  0.11631000  1
  C  C92  1  0.04227000  0.43158000  0.03159000  1
  C  C93  1  0.94306000  0.38878000  0.01028000  1
  C  C94  1  0.88891000  0.34020000  0.91433000  1
  C  C95  1  0.95807000  0.35601000  0.88210000  1
  C  C96  1  0.54722000  0.20960000  0.67199000  1
  C  C97  1  0.36365000  0.88141000  0.50088000  1
  C  C98  1  0.45710000  0.96657000  0.56539000  1
  C  C99  1  0.55581000  0.98746000  0.60905000  1
  C  C100  1  0.61049000  0.08473000  0.65942000  1
  C  C101  1  0.54215000  0.11804000  0.64355000  1
  C  C102  1  0.33805000  0.46285000  0.79233000  1
  C  C103  1  0.48085000  0.62138000  0.11631000  1
  C  C104  1  0.48933000  0.60001000  0.03159000  1
  C  C105  1  0.56723000  0.62150000  0.01027000  1
  C  C106  1  0.52541000  0.57412000  0.91431000  1
  C  C107  1  0.42404000  0.52609000  0.88210000  1
  C  C108  1  0.87783000  0.32889000  0.54046000  1
  C  C109  1  0.85917000  0.49375000  0.37739000  1
  C  C110  1  0.89081000  0.43116000  0.40082000  1
  C  C111  1  0.94762000  0.38833000  0.38020000  1
  C  C112  1  0.95335000  0.33957000  0.42877000  1
  C  C113  1  0.90006000  0.35561000  0.47660000  1
  O  O114  1  0.85857000  0.71991000  0.44713000  1
  O  O115  1  0.75314000  0.78377000  0.42423000  1
  O  O116  1  0.88923000  0.10265000  0.59086000  1
  O  O117  1  0.05793000  0.19134000  0.66666000  1
  O  O118  1  0.90147000  0.95157000  0.54062000  1
  O  O119  1  0.40871000  0.54915000  0.27214000  1
  O  O120  1  0.32561000  0.57303000  0.35739000  1
  O  O121  1  0.30409000  0.41483000  0.51879000  1
  O  O122  1  0.39504000  0.33631000  0.53003000  1
  O  O123  1  0.36128000  0.45960000  0.41322000  1
  O  O124  1  0.13470000  0.72639000  0.27513000  1
  O  O125  1  0.96603000  0.63935000  0.21226000  1
  O  O126  1  0.78559000  0.48511000  0.89727000  1
  O  O127  1  0.86670000  0.47516000  0.80975000  1
  O  O128  1  0.94781000  0.58866000  0.04670000  1
  O  O129  1  0.36344000  0.72302000  0.27215000  1
  O  O130  1  0.53178000  0.78436000  0.35739000  1
  O  O131  1  0.71470000  0.10395000  0.51879000  1
  O  O132  1  0.63500000  0.19372000  0.53003000  1
  O  O133  1  0.55195000  0.95363000  0.41323000  1
  O  O134  1  0.64043000  0.54874000  0.27514000  1
  O  O135  1  0.74623000  0.57291000  0.21226000  1
  O  O136  1  0.61167000  0.41215000  0.89728000  1
  O  O137  1  0.44305000  0.33458000  0.80975000  1
  O  O138  1  0.59888000  0.45804000  0.04671000  1
  O  O139  1  0.08856000  0.72722000  0.44713000  1
  O  O140  1  0.17109000  0.64046000  0.42423000  1
  O  O141  1  0.20162000  0.48820000  0.59086000  1
  O  O142  1  0.10873000  0.47531000  0.66666000  1
  O  O143  1  0.13914000  0.58904000  0.54062000  1
  O  O144  1  0.14143000  0.28009000  0.55288000  1
  O  O145  1  0.24686000  0.21623000  0.57578000  1
  O  O146  1  0.11076000  0.89734000  0.40914000  1
  O  O147  1  0.94207000  0.80866000  0.33334000  1
  O  O148  1  0.09853000  0.04843000  0.45939000  1
  O  O149  1  0.59129000  0.45085000  0.72786000  1
  O  O150  1  0.67438000  0.42696000  0.64261000  1
  O  O151  1  0.69592000  0.58517000  0.48122000  1
  O  O152  1  0.60496000  0.66369000  0.46997000  1
  O  O153  1  0.63872000  0.54040000  0.58678000  1
  O  O154  1  0.86530000  0.27361000  0.72488000  1
  O  O155  1  0.03397000  0.36064000  0.78773000  1
  O  O156  1  0.21441000  0.51489000  0.10273000  1
  O  O157  1  0.13331000  0.52484000  0.19026000  1
  O  O158  1  0.05218000  0.41133000  0.95329000  1
  O  O159  1  0.63656000  0.27698000  0.72786000  1
  O  O160  1  0.46823000  0.21564000  0.64262000  1
  O  O161  1  0.28529000  0.89604000  0.48121000  1
  O  O162  1  0.36501000  0.80628000  0.46997000  1
  O  O163  1  0.44806000  0.04637000  0.58678000  1
  O  O164  1  0.35958000  0.45126000  0.72487000  1
  O  O165  1  0.25377000  0.42709000  0.78774000  1
  O  O166  1  0.38833000  0.58785000  0.10273000  1
  O  O167  1  0.55695000  0.66542000  0.19025000  1
  O  O168  1  0.40112000  0.54196000  0.95329000  1
  O  O169  1  0.91144000  0.27278000  0.55288000  1
  O  O170  1  0.82891000  0.35954000  0.57578000  1
  O  O171  1  0.79838000  0.51180000  0.40914000  1
  O  O172  1  0.89128000  0.52469000  0.33334000  1
  O  O173  1  0.86086000  0.41096000  0.45939000  1
