# generated using pymatgen
data_V2H14C24N2O11
_symmetry_space_group_name_H-M   'P 1'
_cell_length_a   7.12690000
_cell_length_b   14.03361000
_cell_length_c   20.87385000
_cell_angle_alpha   81.98074000
_cell_angle_beta   90.08034000
_cell_angle_gamma   90.03567000
_symmetry_Int_Tables_number   1
_chemical_formula_structural   V2H14C24N2O11
_chemical_formula_sum   'V4 H28 C48 N4 O22'
_cell_volume   2067.30422541
_cell_formula_units_Z   2
loop_
 _symmetry_equiv_pos_site_id
 _symmetry_equiv_pos_as_xyz
  1  'x, y, z'
loop_
 _atom_site_type_symbol
 _atom_site_label
 _atom_site_symmetry_multiplicity
 _atom_site_fract_x
 _atom_site_fract_y
 _atom_site_fract_z
 _atom_site_occupancy
  V  V0  1  0.93524000  0.51121000  0.49839000  1
  V  V1  1  0.43524000  0.48879000  0.50161000  1
  V  V2  1  0.35192000  0.98879000  0.00162000  1
  V  V3  1  0.85192000  0.01121000  0.99838000  1
  H  H4  1  0.08808000  0.17701000  0.47095000  1
  H  H5  1  0.67789000  0.82558000  0.52859000  1
  H  H6  1  0.07071000  0.05042000  0.40299000  1
  H  H7  1  0.67510000  0.95259000  0.59653000  1
  H  H8  1  0.20546000  0.38520000  0.30754000  1
  H  H9  1  0.60909000  0.61253000  0.69309000  1
  H  H10  1  0.11788000  0.45631000  0.09103000  1
  H  H11  1  0.71925000  0.54722000  0.90954000  1
  H  H12  1  0.13800000  0.03778000  0.17650000  1
  H  H13  1  0.61478000  0.96230000  0.82333000  1
  H  H14  1  0.21772000  0.95479000  0.33690000  1
  H  H15  1  0.04409000  0.82849000  0.29756000  1
  H  H16  1  0.19122000  0.88450000  0.23294000  1
  H  H17  1  0.94274000  0.91467000  0.23531000  1
  H  H18  1  0.52160000  0.04436000  0.66697000  1
  H  H19  1  0.70847000  0.17236000  0.70062000  1
  H  H20  1  0.82062000  0.08661000  0.76067000  1
  H  H21  1  0.57379000  0.11686000  0.76869000  1
  H  H22  1  0.07623000  0.29158000  0.98133000  1
  H  H23  1  0.26792000  0.41739000  0.92643000  1
  H  H24  1  0.34829000  0.44771000  0.00274000  1
  H  H25  1  0.10730000  0.47309000  0.97627000  1
  H  H26  1  0.55337000  0.71054000  0.01321000  1
  H  H27  1  0.79424000  0.62927000  0.07722000  1
  H  H28  1  0.90464000  0.71919000  0.01900000  1
  H  H29  1  0.90078000  0.59401000  0.00610000  1
  H  H30  1  0.04071000  0.49811000  0.18567000  1
  H  H31  1  0.80271000  0.50944000  0.81329000  1
  C  C32  1  0.65542000  0.60728000  0.39547000  1
  C  C33  1  0.15557000  0.39260000  0.60449000  1
  C  C34  1  0.65399000  0.63458000  0.56730000  1
  C  C35  1  0.15353000  0.36546000  0.43274000  1
  C  C36  1  0.09495000  0.12323000  0.37975000  1
  C  C37  1  0.66614000  0.87888000  0.61990000  1
  C  C38  1  0.14287000  0.28944000  0.39193000  1
  C  C39  1  0.64818000  0.71093000  0.60802000  1
  C  C40  1  0.14815000  0.30828000  0.07675000  1
  C  C41  1  0.65880000  0.69208000  0.92273000  1
  C  C42  1  0.12748000  0.38267000  0.11440000  1
  C  C43  1  0.69597000  0.61969000  0.88528000  1
  C  C44  1  0.10670000  0.36354000  0.18198000  1
  C  C45  1  0.70976000  0.63956000  0.81754000  1
  C  C46  1  0.12634000  0.26741000  0.21426000  1
  C  C47  1  0.66880000  0.73403000  0.78551000  1
  C  C48  1  0.13233000  0.19149000  0.17580000  1
  C  C49  1  0.64703000  0.80923000  0.82410000  1
  C  C50  1  0.13145000  0.24327000  0.28323000  1
  C  C51  1  0.65670000  0.75767000  0.71663000  1
  C  C52  1  0.11335000  0.14526000  0.31194000  1
  C  C53  1  0.65636000  0.85609000  0.68787000  1
  C  C54  1  0.11517000  0.07087000  0.27303000  1
  C  C55  1  0.64539000  0.93008000  0.72693000  1
  C  C56  1  0.12898000  0.09513000  0.20582000  1
  C  C57  1  0.63385000  0.90536000  0.79411000  1
  C  C58  1  0.16148000  0.31280000  0.32509000  1
  C  C59  1  0.63761000  0.68685000  0.67506000  1
  C  C60  1  0.10521000  0.19519000  0.41911000  1
  C  C61  1  0.66666667  0.80667000  0.58057000  1
  C  C62  1  0.14004000  0.21260000  0.10742000  1
  C  C63  1  0.64152000  0.78765000  0.89248000  1
  C  C64  1  0.14304000  0.16853000  0.83351000  1
  C  C65  1  0.64244000  0.83080000  0.16623000  1
  C  C66  1  0.14551000  0.21966000  0.78111000  1
  C  C67  1  0.64419000  0.77950000  0.21857000  1
  C  C68  1  0.14692000  0.27957000  0.71932000  1
  C  C69  1  0.64578000  0.71973000  0.28041000  1
  C  C70  1  0.14911000  0.33070000  0.66692000  1
  C  C71  1  0.64849000  0.66886000  0.33291000  1
  C  C72  1  0.63188000  0.86510000  0.93282000  1
  C  C73  1  0.13217000  0.13488000  0.06719000  1
  C  C74  1  0.63645000  0.89311000  0.10399000  1
  C  C75  1  0.13644000  0.10663000  0.89591000  1
  C  C76  1  0.07093000  0.89637000  0.26469000  1
  C  C77  1  0.68708000  0.10467000  0.73425000  1
  C  C78  1  0.22572000  0.42171000  0.97713000  1
  C  C79  1  0.82044000  0.65185000  0.02486000  1
  N  N80  1  0.11420000  0.97230000  0.30271000  1
  N  N81  1  0.63451000  0.02850000  0.69755000  1
  N  N82  1  0.16821000  0.32735000  0.00782000  1
  N  N83  1  0.64337000  0.66770000  0.99116000  1
  O  O84  1  0.49286000  0.59735000  0.55287000  1
  O  O85  1  0.99286000  0.40265000  0.44713000  1
  O  O86  1  0.81872000  0.58699000  0.42109000  1
  O  O87  1  0.31872000  0.41301000  0.57891000  1
  O  O88  1  0.82214000  0.60864000  0.55077000  1
  O  O89  1  0.32214000  0.39136000  0.44923000  1
  O  O90  1  0.99923000  0.42445000  0.57774000  1
  O  O91  1  0.49923000  0.57555000  0.42226000  1
  O  O92  1  0.66302000  0.43955000  0.50869000  1
  O  O93  1  0.16302000  0.56045000  0.49131000  1
  O  O94  1  0.79776000  0.92435000  0.07770000  1
  O  O95  1  0.29776000  0.07565000  0.92230000  1
  O  O96  1  0.46487000  0.89135000  0.94922000  1
  O  O97  1  0.96487000  0.10865000  0.05078000  1
  O  O98  1  0.46844000  0.91299000  0.07890000  1
  O  O99  1  0.96844000  0.08701000  0.92110000  1
  O  O100  1  0.29153000  0.09737000  0.05288000  1
  O  O101  1  0.79153000  0.90263000  0.94712000  1
  O  O102  1  0.62420000  0.06040000  0.99129000  1
  O  O103  1  0.12420000  0.93960000  0.00871000  1
  O  O104  1  0.05048000  0.43681000  0.21553000  1
  O  O105  1  0.77900000  0.56966000  0.78343000  1
