# generated using pymatgen
data_H7C11N4O
_symmetry_space_group_name_H-M   'P 1'
_cell_length_a   16.37230000
_cell_length_b   29.25350000
_cell_length_c   29.25350000
_cell_angle_alpha   90.00000000
_cell_angle_beta   90.00000000
_cell_angle_gamma   90.00000000
_symmetry_Int_Tables_number   1
_chemical_formula_structural   H7C11N4O
_chemical_formula_sum   'H112 C176 N64 O16'
_cell_volume   14010.87834774
_cell_formula_units_Z   16
loop_
 _symmetry_equiv_pos_site_id
 _symmetry_equiv_pos_as_xyz
  1  'x, y, z'
loop_
 _atom_site_type_symbol
 _atom_site_label
 _atom_site_symmetry_multiplicity
 _atom_site_fract_x
 _atom_site_fract_y
 _atom_site_fract_z
 _atom_site_occupancy
  C  1  1  0.13533300  0.17528300  0.09132200  1
  C  2  1  0.09102100  0.19967200  0.12473100  1
  C  3  1  0.08846000  0.24776000  0.12501100  1
  C  4  1  0.12642600  0.27283800  0.08896300  1
  C  5  1  0.17020100  0.24835800  0.05428800  1
  C  6  1  0.17651700  0.19954800  0.05579300  1
  C  9  1  0.13646800  0.12642200  0.09516900  1
  C  10  1  0.17826400  0.10271200  0.13083600  1
  C  11  1  0.17422100  0.05384400  0.13211800  1
  C  12  1  0.13273700  0.02875600  0.09698000  1
  C  13  1  0.09227600  0.05333900  0.06144600  1
  C  14  1  0.09252800  0.10147400  0.06200500  1
  C  27  1  0.62932400  0.62694300  0.10336700  1
  C  28  1  0.58457300  0.60261500  0.07005400  1
  C  29  1  0.58292800  0.55446300  0.06919900  1
  C  30  1  0.62209300  0.52933500  0.10481700  1
  C  31  1  0.66595400  0.55380000  0.13945100  1
  C  32  1  0.67167000  0.60259100  0.13837900  1
  C  35  1  0.63025900  0.67584000  0.09997700  1
  C  36  1  0.67280000  0.69992300  0.06484600  1
  C  37  1  0.66994200  0.74883700  0.06450900  1
  C  38  1  0.62875000  0.77354500  0.10001800  1
  C  39  1  0.58759600  0.74858700  0.13504500  1
  C  40  1  0.58678500  0.70046600  0.13358200  1
  C  53  1  0.62843900  0.12651600  0.59093400  1
  C  54  1  0.67363100  0.10202000  0.62391500  1
  C  55  1  0.67507800  0.05387300  0.62461200  1
  C  56  1  0.63475700  0.02888900  0.58927300  1
  C  57  1  0.59058300  0.05348000  0.55480900  1
  C  58  1  0.58556200  0.10234000  0.55598800  1
  C  61  1  0.62735800  0.17539400  0.59476600  1
  C  62  1  0.58449300  0.19908100  0.63005100  1
  C  63  1  0.58696100  0.24799700  0.63080600  1
  C  64  1  0.62805400  0.27310200  0.59554200  1
  C  65  1  0.66960600  0.24854500  0.56038100  1
  C  66  1  0.67079100  0.20041200  0.56143000  1
  C  79  1  0.12280400  0.67499600  0.60465200  1
  C  80  1  0.16729400  0.69955700  0.57143200  1
  C  81  1  0.17002500  0.74764700  0.57147300  1
  C  82  1  0.13185500  0.77255000  0.60756800  1
  C  83  1  0.08815300  0.74789300  0.64215200  1
  C  84  1  0.08183100  0.69908500  0.64038100  1
  C  87  1  0.12098300  0.62616100  0.60029700  1
  C  88  1  0.07797300  0.60293600  0.56474200  1
  C  89  1  0.08103100  0.55401200  0.56300900  1
  C  90  1  0.12332400  0.52850400  0.59757900  1
  C  91  1  0.16509000  0.55260400  0.63299700  1
  C  92  1  0.16532200  0.60074200  0.63291200  1
  C  105  1  0.37313100  0.89459300  0.37380100  1
  C  106  1  0.41791200  0.92812400  0.39773000  1
  C  107  1  0.41989100  0.92925900  0.44580300  1
  C  108  1  0.38094900  0.89389600  0.47137600  1
  C  109  1  0.33727600  0.85886400  0.44734100  1
  C  110  1  0.33138900  0.85957900  0.39849900  1
  C  113  1  0.37204700  0.89781400  0.32492000  1
  C  114  1  0.33084300  0.93338900  0.30071900  1
  C  115  1  0.33425900  0.93382600  0.25177400  1
  C  116  1  0.37496100  0.89797400  0.22727100  1
  C  117  1  0.41574400  0.86299000  0.25243800  1
  C  118  1  0.41560900  0.86413200  0.30050500  1
  C  131  1  0.87431800  0.90748400  0.82402400  1
  C  132  1  0.91822100  0.87362800  0.80001300  1
  C  133  1  0.92059700  0.87275300  0.75192700  1
  C  134  1  0.88340600  0.90879700  0.72650400  1
  C  135  1  0.84047400  0.94400300  0.75065200  1
  C  136  1  0.83381900  0.94301100  0.79941800  1
  C  139  1  0.87301600  0.90423300  0.87290000  1
  C  140  1  0.83085100  0.86901700  0.89710600  1
  C  141  1  0.83400000  0.86865100  0.94606100  1
  C  142  1  0.87553900  0.90420200  0.97056000  1
  C  143  1  0.91733300  0.93880000  0.94538000  1
  C  144  1  0.91729800  0.93761000  0.89731800  1
  C  157  1  0.88120800  0.39502600  0.32114700  1
  C  158  1  0.83538300  0.42762000  0.29653400  1
  C  159  1  0.83393800  0.42809900  0.24840300  1
  C  160  1  0.87447600  0.39273600  0.22357100  1
  C  161  1  0.91918000  0.35860600  0.24831700  1
  C  162  1  0.92456100  0.36015200  0.29714500  1
  C  165  1  0.88155000  0.39888500  0.36999300  1
  C  166  1  0.92184900  0.43497300  0.39389500  1
  C  167  1  0.91845900  0.43572900  0.44280500  1
  C  168  1  0.87905800  0.39969200  0.46765300  1
  C  169  1  0.83927000  0.36413400  0.44281200  1
  C  170  1  0.83912400  0.36496100  0.39472500  1
  C  183  1  0.38219500  0.40709600  0.87103000  1
  C  184  1  0.33852200  0.37343200  0.89544500  1
  C  185  1  0.33660400  0.37293300  0.94354500  1
  C  186  1  0.37405900  0.40916100  0.96858100  1
  C  187  1  0.41676500  0.44416900  0.94402700  1
  C  188  1  0.42295700  0.44279800  0.89525000  1
  C  191  1  0.38314600  0.40343500  0.82217800  1
  C  192  1  0.42515100  0.36802800  0.79816100  1
  C  193  1  0.42201800  0.36738500  0.74920200  1
  C  194  1  0.38067300  0.40288200  0.72451800  1
  C  195  1  0.33881500  0.43759200  0.74950300  1
  C  196  1  0.33888200  0.43668600  0.79756900  1
  C  209  1  0.95908500  0.97564700  0.96692300  1
  C  211  1  0.08900400  0.00028000  0.99497100  1
  C  212  1  0.05051700  0.03137100  0.02489300  1
  C  214  1  0.91998600  0.01042000  0.99302900  1
  C  216  1  0.83598400  0.01676500  0.99418100  1
  C  219  1  0.45651900  0.82581500  0.23085100  1
  C  221  1  0.58582300  0.80046500  0.20246100  1
  C  222  1  0.54644100  0.77019100  0.17204600  1
  C  224  1  0.41659200  0.79163100  0.20437400  1
  C  226  1  0.33257400  0.78592300  0.20321200  1
  C  229  1  0.79933100  0.32689200  0.46475800  1
  C  231  1  0.67056500  0.30071600  0.49321600  1
  C  232  1  0.71048000  0.27058100  0.52353700  1
  C  234  1  0.83994200  0.29313700  0.49145900  1
  C  236  1  0.92407800  0.28799200  0.49262100  1
  C  239  1  0.29730000  0.47439800  0.72774200  1
  C  241  1  0.16776400  0.49905800  0.69915400  1
  C  242  1  0.20660400  0.53021700  0.66943100  1
  C  244  1  0.33669500  0.50926200  0.70188800  1
  C  246  1  0.42063600  0.51575300  0.70123500  1
  C  249  1  0.54813700  0.27252000  0.66704100  1
  C  251  1  0.42089300  0.30182200  0.69471300  1
  C  252  1  0.46237700  0.33192400  0.72442600  1
  C  254  1  0.59042200  0.29997900  0.69951300  1
  C  256  1  0.67430300  0.30063700  0.70519000  1
  C  259  1  0.20769900  0.76954900  0.53339200  1
  C  261  1  0.33523100  0.79181300  0.50005300  1
  C  262  1  0.29511900  0.82465600  0.47276700  1
  C  264  1  0.16606700  0.79957600  0.50298600  1
  C  266  1  0.08219300  0.80459400  0.50077700  1
  C  269  1  0.70696800  0.52864800  0.17437500  1
  C  271  1  0.83411600  0.49415300  0.19495400  1
  C  272  1  0.79412500  0.46556500  0.22673100  1
  C  274  1  0.66708700  0.50317000  0.20930300  1
  C  276  1  0.58452400  0.50580600  0.21881900  1
  C  279  1  0.45834700  0.96756600  0.46688100  1
  C  281  1  0.58669100  0.00075500  0.48775000  1
  C  282  1  0.54759400  0.02858800  0.52050200  1
  C  284  1  0.41728500  0.99929500  0.49580700  1
  C  286  1  0.33306900  0.00098700  0.50104700  1
  C  289  1  0.95812400  0.83427900  0.73062000  1
  C  291  1  0.08559600  0.80001300  0.70974400  1
  C  292  1  0.04587500  0.77278200  0.67672900  1
  C  294  1  0.91632800  0.80331900  0.70119800  1
  C  296  1  0.83211800  0.80268300  0.69553400  1
  C  299  1  0.29942000  0.33458500  0.96524500  1
  C  301  1  0.17218500  0.30031000  0.98661700  1
  C  302  1  0.21227300  0.27339100  0.01975300  1
  C  304  1  0.34147100  0.30391100  0.99483800  1
  C  306  1  0.42560100  0.30335100  0.00028000  1
  C  309  1  0.05058400  0.26943900  0.16315900  1
  C  311  1  0.92273400  0.29073300  0.19672100  1
  C  312  1  0.96211200  0.32418200  0.22360100  1
  C  314  1  0.09162900  0.29990200  0.19338100  1
  C  316  1  0.17540500  0.30545700  0.19554100  1
  C  319  1  0.70847600  0.77373300  0.02844100  1
  C  321  1  0.83549000  0.80318900  0.00062500  1
  C  322  1  0.79375400  0.83329100  0.97102500  1
  C  324  1  0.66593500  0.80129500  0.99616800  1
  C  326  1  0.58208700  0.80176000  0.99059200  1
  C  329  1  0.45713800  0.47939900  0.96910400  1
  C  331  1  0.58412700  0.50106800  0.00313200  1
  C  332  1  0.54374700  0.53291400  0.03144900  1
  C  334  1  0.41674100  0.51472400  0.99382200  1
  C  336  1  0.33328967  0.52253600  0.99147400  1
  C  339  1  0.80037600  0.97907900  0.72520900  1
  C  341  1  0.67356400  0.00074800  0.69094600  1
  C  342  1  0.71423600  0.03225700  0.66236800  1
  C  344  1  0.84095000  0.01420600  0.70033000  1
  C  346  1  0.92427400  0.02209400  0.70288300  1
  C  349  1  0.21169800  0.02938000  0.16882300  1
  C  351  1  0.33782000  0.99924400  0.19722200  1
  C  352  1  0.29512000  0.96956900  0.22681200  1
  C  354  1  0.16826000  0.00244500  0.20125200  1
  C  356  1  0.08434300  0.00268400  0.20652700  1
  C  359  1  0.95594700  0.47227100  0.46757500  1
  C  361  1  0.08278400  0.50166600  0.49577300  1
  C  362  1  0.04085400  0.53006600  0.52690800  1
  C  364  1  0.91282200  0.50417200  0.49534200  1
  C  366  1  0.82829400  0.50728600  0.49685000  1
  H  7  1  0.06289300  0.18199700  0.15064700  1
  H  16  1  0.06273800  0.11885600  0.03647200  1
  H  19  1  0.22901900  0.14326100  0.02548200  1
  H  20  1  0.24790000  0.19114100  0.99843400  1
  H  21  1  0.24892000  0.11193500  0.18835100  1
  H  22  1  0.22776300  0.15962600  0.16153000  1
  H  23  1  0.16275500  0.96372700  0.11849500  1
  H  24  1  0.09627900  0.96432900  0.07697700  1
  H  25  1  0.15051000  0.33852100  0.06698000  1
  H  26  1  0.08537500  0.33630000  0.10911200  1
  H  33  1  0.55574800  0.62043500  0.04448700  1
  H  42  1  0.55678100  0.68281400  0.15884900  1
  H  45  1  0.72443300  0.65868700  0.16888300  1
  H  46  1  0.74548400  0.61046700  0.19483500  1
  H  47  1  0.74356600  0.69130200  0.00728400  1
  H  48  1  0.72087900  0.64324200  0.03302700  1
  H  49  1  0.66012600  0.83875400  0.07967900  1
  H  50  1  0.59338500  0.83782400  0.12105900  1
  H  51  1  0.64583400  0.46383800  0.12748800  1
  H  52  1  0.57956900  0.46582400  0.08590700  1
  H  59  1  0.70280800  0.11972400  0.64944300  1
  H  68  1  0.70101900  0.18304300  0.53605500  1
  H  71  1  0.53391800  0.15884400  0.52557100  1
  H  72  1  0.51299900  0.11093800  0.49910200  1
  H  73  1  0.51352000  0.18982800  0.68743200  1
  H  74  1  0.53682600  0.14202300  0.66138000  1
  H  75  1  0.59587700  0.33806300  0.61628500  1
  H  76  1  0.66267400  0.33765100  0.57491900  1
  H  77  1  0.60742000  0.96330000  0.56818800  1
  H  78  1  0.67616000  0.96520000  0.60845000  1
  H  85  1  0.19520200  0.68202100  0.54535000  1
  H  94  1  0.19581100  0.61778600  0.65841700  1
  H  97  1  0.02965300  0.64263000  0.67055900  1
  H  98  1  0.01081000  0.69039200  0.69783400  1
  H  99  1  0.00767700  0.61335900  0.50727600  1
  H  100  1  0.02948900  0.66052900  0.53476300  1
  H  101  1  0.09037800  0.46367100  0.57682600  1
  H  102  1  0.15944700  0.46382500  0.61697200  1
  H  103  1  0.10703300  0.83815600  0.62951800  1
  H  104  1  0.17223000  0.83616300  0.58741300  1
  H  111  1  0.44660800  0.95359800  0.37969800  1
  H  120  1  0.44522600  0.83874000  0.31818400  1
  H  123  1  0.27909900  0.82851600  0.34254700  1
  H  124  1  0.25962500  0.80226300  0.39077700  1
  H  125  1  0.26360900  0.99226000  0.30959800  1
  H  126  1  0.28299100  0.96537100  0.35741300  1
  H  127  1  0.34097900  0.91641600  0.16196000  1
  H  128  1  0.40585000  0.87410400  0.16321700  1
  H  129  1  0.35533200  0.87325600  0.53729300  1
  H  130  1  0.42027100  0.91550000  0.53470500  1
  H  137  1  0.94584700  0.84773400  0.81796700  1
  H  146  1  0.94762400  0.96274200  0.87964100  1
  H  149  1  0.78104400  0.97405100  0.85521000  1
  H  150  1  0.76214000  0.00036900  0.80689800  1
  H  151  1  0.76228100  0.81063800  0.88821500  1
  H  152  1  0.78255900  0.83729800  0.84038800  1
  H  153  1  0.84092600  0.88610900  0.03585800  1
  H  154  1  0.90660100  0.92804200  0.03459000  1
  H  155  1  0.86179600  0.93149500  0.66082700  1
  H  156  1  0.92370000  0.88778400  0.66319200  1
  H  163  1  0.80571400  0.45304600  0.31413500  1
  H  172  1  0.81020700  0.33917200  0.37726400  1
  H  175  1  0.97745500  0.33057600  0.35372800  1
  H  176  1  0.99848100  0.30385400  0.30597100  1
  H  177  1  0.98917600  0.49376600  0.38491800  1
  H  178  1  0.96906900  0.46696600  0.33708400  1
  H  179  1  0.91075700  0.42005200  0.53276300  1
  H  180  1  0.84881700  0.37632100  0.53196700  1
  H  181  1  0.90108200  0.37098400  0.15811200  1
  H  182  1  0.83246600  0.41134500  0.15985300  1
  H  189  1  0.31068200  0.34742200  0.87777100  1
  H  198  1  0.30861800  0.46194100  0.81510500  1
  H  201  1  0.47536300  0.47336200  0.83908900  1
  H  202  1  0.49473200  0.50003200  0.88714800  1
  H  203  1  0.49344100  0.30959100  0.80736300  1
  H  204  1  0.47337700  0.33656400  0.85504300  1
  H  205  1  0.41568800  0.38460700  0.65933300  1
  H  206  1  0.35020100  0.42663900  0.66036500  1
  H  207  1  0.39639900  0.43231000  0.03402500  1
  H  208  1  0.33438000  0.38863000  0.03217300  1
  H  215  1  0.15062500  0.99483100  0.99623200  1
  H  218  1  0.80453500  0.00549600  0.96748400  1
  H  225  1  0.64746800  0.80572500  0.20096100  1
  H  228  1  0.30046400  0.79746700  0.22957600  1
  H  235  1  0.60877000  0.30546300  0.49451200  1
  H  238  1  0.95597400  0.29977000  0.46627900  1
  H  245  1  0.10614300  0.49366400  0.69771100  1
  H  248  1  0.45281900  0.50310200  0.72698300  1
  H  255  1  0.35877700  0.30281400  0.69141400  1
  H  258  1  0.70582600  0.27511900  0.69153700  1
  H  265  1  0.39751200  0.78973100  0.50086600  1
  H  268  1  0.04743400  0.78139000  0.51605800  1
  H  275  1  0.89495600  0.49054600  0.18802400  1
  H  278  1  0.55268700  0.53127600  0.20523800  1
  H  285  1  0.64892500  0.99962000  0.48532300  1
  H  288  1  0.29908400  0.98775500  0.47633900  1
  H  295  1  0.14783500  0.80052900  0.71229400  1
  H  298  1  0.79892200  0.81486300  0.72114400  1
  H  305  1  0.10991200  0.30091400  0.98437400  1
  H  308  1  0.45942100  0.31565000  0.97495000  1
  H  315  1  0.86051400  0.28807100  0.19602800  1
  H  318  1  0.21062800  0.28250400  0.18021100  1
  H  325  1  0.89763200  0.80417700  0.00377000  1
  H  328  1  0.55007500  0.77650200  0.00428500  1
  H  335  1  0.64508900  0.49449400  0.00678200  1
  H  338  1  0.30475900  0.51186300  0.96352200  1
  H  345  1  0.61266200  0.99409600  0.68715200  1
  H  348  1  0.95364600  0.01115000  0.73047000  1
  H  355  1  0.39990700  0.99762700  0.19403100  1
  H  358  1  0.05248300  0.02727100  0.19142900  1
  H  365  1  0.14503700  0.49914300  0.49623100  1
  H  368  1  0.79714400  0.49495600  0.47055500  1
  N  8  1  0.12082000  0.31961900  0.08844800  1
  N  15  1  0.13071500  0.98188200  0.09739000  1
  N  17  1  0.22105100  0.17608600  0.02386600  1
  N  18  1  0.22113500  0.12670500  0.16307800  1
  N  34  1  0.61651600  0.48255100  0.10566400  1
  N  41  1  0.62771200  0.82042800  0.10045300  1
  N  43  1  0.71689300  0.62581500  0.17017300  1
  N  44  1  0.71529300  0.67624700  0.03221600  1
  N  60  1  0.63911000  0.98206300  0.58886600  1
  N  67  1  0.62861000  0.31999200  0.59544000  1
  N  69  1  0.54077800  0.12593300  0.52425200  1
  N  70  1  0.54209100  0.17503700  0.66244300  1
  N  86  1  0.13710200  0.81934800  0.60814200  1
  N  93  1  0.12442800  0.48162100  0.59708000  1
  N  95  1  0.03743900  0.67546400  0.67225100  1
  N  96  1  0.03520600  0.62757200  0.53293400  1
  N  112  1  0.38552700  0.89433700  0.51818400  1
  N  119  1  0.37463200  0.89639500  0.18040900  1
  N  121  1  0.28676900  0.82740500  0.37541500  1
  N  122  1  0.28930600  0.96638300  0.32445700  1
  N  138  1  0.88934300  0.90912200  0.67974400  1
  N  145  1  0.87507500  0.90587100  0.01741400  1
  N  147  1  0.78935700  0.97531500  0.82239400  1
  N  148  1  0.78864800  0.83630300  0.87335500  1
  N  164  1  0.86971200  0.39192600  0.17676700  1
  N  171  1  0.87918000  0.39879300  0.51452600  1
  N  173  1  0.97012600  0.32885900  0.32086400  1
  N  174  1  0.96285500  0.46807000  0.37004400  1
  N  190  1  0.36857900  0.40983800  0.01535300  1
  N  197  1  0.38148000  0.40444700  0.67765900  1
  N  199  1  0.46723500  0.47491700  0.87190600  1
  N  200  1  0.46725700  0.33539700  0.82208200  1
  N  210  1  0.04185600  0.97255000  0.96888200  1
  N  213  1  0.96799700  0.03526400  0.02191400  1
  N  220  1  0.53934400  0.82833800  0.22879000  1
  N  223  1  0.46385700  0.76682100  0.17508900  1
  N  230  1  0.71644200  0.32881500  0.46678800  1
  N  233  1  0.79316200  0.26789800  0.52062800  1
  N  240  1  0.21456500  0.47129400  0.72540700  1
  N  243  1  0.28906200  0.53418200  0.67285900  1
  N  250  1  0.46516400  0.27491900  0.66625200  1
  N  253  1  0.54521900  0.32911500  0.72553000  1
  N  260  1  0.29050300  0.76709800  0.53028500  1
  N  263  1  0.21234000  0.82642000  0.47519400  1
  N  270  1  0.78877000  0.52286000  0.16896800  1
  N  273  1  0.71270000  0.47219300  0.23295900  1
  N  280  1  0.54113100  0.97027700  0.46386900  1
  N  283  1  0.46479100  0.02672500  0.52245300  1
  N  290  1  0.04079300  0.83071000  0.73380900  1
  N  293  1  0.96318100  0.77558500  0.67449300  1
  N  300  1  0.21672600  0.33095900  0.96233200  1
  N  303  1  0.29497400  0.27625400  0.02178800  1
  N  310  1  0.96789600  0.26624100  0.16651900  1
  N  313  1  0.04481300  0.32660500  0.22102000  1
  N  320  1  0.79144600  0.77617300  0.02908300  1
  N  323  1  0.71091400  0.83045400  0.97005400  1
  N  330  1  0.53908100  0.47454800  0.97477900  1
  N  333  1  0.46217000  0.53851000  0.02488100  1
  N  340  1  0.71844700  0.97427300  0.71943200  1
  N  343  1  0.79578200  0.03787500  0.66906800  1
  N  350  1  0.29460100  0.02626400  0.16837600  1
  N  353  1  0.21235800  0.97306300  0.22759000  1
  N  360  1  0.03899700  0.47279400  0.46908900  1
  N  363  1  0.95793700  0.52997400  0.52482600  1
  O  217  1  0.80844400  0.05126000  0.01203500  1
  O  227  1  0.30329200  0.75220700  0.18473300  1
  O  237  1  0.95406200  0.25445700  0.51108000  1
  O  247  1  0.44715800  0.55187200  0.68629400  1
  O  257  1  0.70798200  0.33789500  0.70413100  1
  O  267  1  0.05382600  0.84324200  0.50053500  1
  O  277  1  0.54633700  0.47019000  0.22336800  1
  O  287  1  0.30294900  0.03468700  0.51917900  1
  O  297  1  0.80069400  0.77100100  0.67471600  1
  O  307  1  0.45802100  0.27238100  0.02170000  1
  O  317  1  0.20305100  0.34426600  0.19598300  1
  O  327  1  0.54881700  0.83912000  0.99275900  1
  O  337  1  0.30527800  0.55738900  0.00838700  1
  O  347  1  0.95319100  0.05663900  0.68581200  1
  O  357  1  0.04879500  0.96606200  0.20951200  1
  O  367  1  0.79757200  0.54123100  0.51418800  1
