# generated using pymatgen
data_H28C41N8
_symmetry_space_group_name_H-M   'P 1'
_cell_length_a   12.04610000
_cell_length_b   25.86660000
_cell_length_c   33.23810000
_cell_angle_alpha   90.00000000
_cell_angle_beta   90.00000000
_cell_angle_gamma   90.00000000
_symmetry_Int_Tables_number   1
_chemical_formula_structural   H28C41N8
_chemical_formula_sum   'H112 C164 N32'
_cell_volume   10356.71443051
_cell_formula_units_Z   4
loop_
 _symmetry_equiv_pos_site_id
 _symmetry_equiv_pos_as_xyz
  1  'x, y, z'
loop_
 _atom_site_type_symbol
 _atom_site_label
 _atom_site_symmetry_multiplicity
 _atom_site_fract_x
 _atom_site_fract_y
 _atom_site_fract_z
 _atom_site_occupancy
  C  1  1  0.98172600  0.96849500  0.94290800  1
  C  2  1  0.06408800  0.93167600  0.93244500  1
  C  3  1  0.07526300  0.91552900  0.89203000  1
  C  4  1  0.91908700  0.97002500  0.87078600  1
  C  5  1  0.91164100  0.98752900  0.91136300  1
  C  6  1  0.10354400  0.06115700  0.98170000  1
  C  11  1  0.96612900  0.98436100  0.98675300  1
  C  12  1  0.14030600  0.90862700  0.96262000  1
  C  15  1  0.24218700  0.13243000  0.97946400  1
  C  18  1  0.94253100  0.50657700  0.94378700  1
  C  19  1  0.86051600  0.54361300  0.93364300  1
  C  20  1  0.84918900  0.56031400  0.89337000  1
  C  21  1  0.91966000  0.54173400  0.86302300  1
  C  22  1  0.00443000  0.50560600  0.87158800  1
  C  23  1  0.01223600  0.48774900  0.91205600  1
  C  24  1  0.82458400  0.41288100  0.98263900  1
  C  29  1  0.78623900  0.56698300  0.96421400  1
  C  32  1  0.68827900  0.34116600  0.98110000  1
  C  34  1  0.56003500  0.21812400  0.97527400  1
  C  37  1  0.49503200  0.70225000  0.97827300  1
  C  39  1  0.54751600  0.66345400  0.95178100  1
  C  127  1  0.12477500  0.92344800  0.00537800  1
  C  128  1  0.04084400  0.95843400  0.01779700  1
  C  129  1  0.03239300  0.96956700  0.05987500  1
  C  130  1  0.10489100  0.94779700  0.08916700  1
  C  131  1  0.18685500  0.91309000  0.07526100  1
  C  132  1  0.19676200  0.90126200  0.03420000  1
  C  133  1  0.00420200  0.93420700  0.86190000  1
  C  134  1  0.84771200  0.96859800  0.99727900  1
  C  135  1  0.76839800  0.00654200  0.00829600  1
  C  136  1  0.91183300  0.07787000  0.00122900  1
  C  137  1  0.99407400  0.04178100  0.98926100  1
  C  138  1  0.93893700  0.13083000  0.00462000  1
  C  139  1  0.04707000  0.14858600  0.99725200  1
  C  140  1  0.13312400  0.11424100  0.98612900  1
  C  141  1  0.81101200  0.91608600  0.99480000  1
  C  142  1  0.69939100  0.90075600  0.00236600  1
  C  143  1  0.62395500  0.94004400  0.01361800  1
  C  144  1  0.65789500  0.99177000  0.01673200  1
  C  153  1  0.79637500  0.06227400  0.01092900  1
  C  156  1  0.84949300  0.98815200  0.83972800  1
  C  157  1  0.66391800  0.84926600  0.99756700  1
  C  159  1  0.09308300  0.95659900  0.13068900  1
  C  161  1  0.79979700  0.55089600  0.00675900  1
  C  162  1  0.88307600  0.51547600  0.01887700  1
  C  163  1  0.89192100  0.50390100  0.06087100  1
  C  164  1  0.82005800  0.52567500  0.09035500  1
  C  165  1  0.73818300  0.56061500  0.07673900  1
  C  166  1  0.72822000  0.57294800  0.03577400  1
  C  167  1  0.07574300  0.50775200  0.99795000  1
  C  168  1  0.15863300  0.47064600  0.00697800  1
  C  169  1  0.01835300  0.39754400  0.00032000  1
  C  170  1  0.93357200  0.43299500  0.98967600  1
  C  171  1  0.99331000  0.34429000  0.00345200  1
  C  172  1  0.88510600  0.32574100  0.99708000  1
  C  173  1  0.79738700  0.35954500  0.98676600  1
  C  174  1  0.10709900  0.56106400  0.99742900  1
  C  175  1  0.21729300  0.57813200  0.00498400  1
  C  176  1  0.29727600  0.53977400  0.01375700  1
  C  177  1  0.26844600  0.48715400  0.01479200  1
  C  187  1  0.95850200  0.49060200  0.98756100  1
  C  188  1  0.13420200  0.41436100  0.00842200  1
  C  190  1  0.07370600  0.48774500  0.84034900  1
  C  191  1  0.24477900  0.63091300  0.00549500  1
  C  194  1  0.83226300  0.51659700  0.13178400  1
  C  196  1  0.48244900  0.50851700  0.53297300  1
  C  197  1  0.56278600  0.54673300  0.54243500  1
  C  198  1  0.62260200  0.55276700  0.46921500  1
  C  199  1  0.54059500  0.51626100  0.45790600  1
  C  200  1  0.53424500  0.50214200  0.41638100  1
  C  201  1  0.60675700  0.52230000  0.38637700  1
  C  202  1  0.68659800  0.55881000  0.39915100  1
  C  203  1  0.69404400  0.57385600  0.43969200  1
  C  204  1  0.57309200  0.56455900  0.58245000  1
  C  205  1  0.50319700  0.54616400  0.61305900  1
  C  206  1  0.42057800  0.50869900  0.60514600  1
  C  207  1  0.41367900  0.48976300  0.56498200  1
  C  208  1  0.34777500  0.50697900  0.47892400  1
  C  209  1  0.26809300  0.46885600  0.46866800  1
  C  210  1  0.41130500  0.39754000  0.47656200  1
  C  211  1  0.49382000  0.43379200  0.48799200  1
  C  212  1  0.43830100  0.34453000  0.47360500  1
  C  213  1  0.54665200  0.32690500  0.48072600  1
  C  214  1  0.63292400  0.36142400  0.49127700  1
  C  215  1  0.60345400  0.41455100  0.49541700  1
  C  216  1  0.31119400  0.55957100  0.48078900  1
  C  217  1  0.19939500  0.57481500  0.47342100  1
  C  218  1  0.12368200  0.53533200  0.46286400  1
  C  219  1  0.15747500  0.48352400  0.46030100  1
  C  232  1  0.46625300  0.49132100  0.48952000  1
  C  233  1  0.29580600  0.41303900  0.46680200  1
  C  236  1  0.63699700  0.56978500  0.51154900  1
  C  239  1  0.74226600  0.34335500  0.49733100  1
  C  240  1  0.34996400  0.49119400  0.63612600  1
  C  241  1  0.16400300  0.62640300  0.47782600  1
  C  245  1  0.59941400  0.50606200  0.34599500  1
  C  247  1  0.44204200  0.96810800  0.53202000  1
  C  248  1  0.36172700  0.92989800  0.54126800  1
  C  249  1  0.30150900  0.92468300  0.46791000  1
  C  250  1  0.38307300  0.96141600  0.45677800  1
  C  251  1  0.38968400  0.97578100  0.41529800  1
  C  252  1  0.31760700  0.95557600  0.38516400  1
  C  253  1  0.23785900  0.91893700  0.39780900  1
  C  254  1  0.23030900  0.90366200  0.43829000  1
  C  255  1  0.35127000  0.91166200  0.58116800  1
  C  256  1  0.42090000  0.92986500  0.61192800  1
  C  257  1  0.50351800  0.96741700  0.60425600  1
  C  258  1  0.51077400  0.98656400  0.56415400  1
  C  259  1  0.57554100  0.96820800  0.47804600  1
  C  260  1  0.65880400  0.00539400  0.46971500  1
  C  261  1  0.51885400  0.07854600  0.47717300  1
  C  262  1  0.43384400  0.04301000  0.48740500  1
  C  263  1  0.49396300  0.13185400  0.47448000  1
  C  264  1  0.38567800  0.15034900  0.48077700  1
  C  265  1  0.29774200  0.11642900  0.49062400  1
  C  266  1  0.32480000  0.06304400  0.49442100  1
  C  267  1  0.60672900  0.91484600  0.47802400  1
  C  268  1  0.71709500  0.89779400  0.47073200  1
  C  269  1  0.79737200  0.93625000  0.46260500  1
  C  270  1  0.76870300  0.98890900  0.46199800  1
  C  283  1  0.45834000  0.98531500  0.48858500  1
  C  284  1  0.63466400  0.06173700  0.46894500  1
  C  287  1  0.28883300  0.90679500  0.51007800  1
  C  290  1  0.18852900  0.13473800  0.49609700  1
  C  291  1  0.57383900  0.98478100  0.63538000  1
  C  292  1  0.74455800  0.84497900  0.46999200  1
  C  296  1  0.32538700  0.97163100  0.34473200  1
  C  298  1  0.45482500  0.28759600  0.00447200  1
  C  299  1  0.55871300  0.26970000  0.98954400  1
  C  300  1  0.36703700  0.20662600  0.98813600  1
  C  302  1  0.43610200  0.33824400  0.02396500  1
  C  308  1  0.95518200  0.18821300  0.47257900  1
  C  309  1  0.05908300  0.20621300  0.48741400  1
  C  310  1  0.06035000  0.25778900  0.50167800  1
  C  312  1  0.86733600  0.26918600  0.48883700  1
  C  315  1  0.93652000  0.13754100  0.45311300  1
  C  321  1  0.39384600  0.69425800  0.99940900  1
  C  322  1  0.35602600  0.73641100  0.02281600  1
  C  324  1  0.51250700  0.78804200  0.00477600  1
  C  328  1  0.99519700  0.77354300  0.49708100  1
  C  329  1  0.89352700  0.78143600  0.47621900  1
  C  330  1  0.85518200  0.73908300  0.45313400  1
  C  332  1  0.01216100  0.68754700  0.47089100  1
  C  335  1  0.04844000  0.81250900  0.52321000  1
  C  341  1  0.31795500  0.98581000  0.24770800  1
  C  342  1  0.24639600  0.96139900  0.27610000  1
  C  343  1  0.14917500  0.93892900  0.25970600  1
  C  345  1  0.19548500  0.96451900  0.19290900  1
  C  348  1  0.42409900  0.01102300  0.25821700  1
  C  354  1  0.60816600  0.48981000  0.24936900  1
  C  355  1  0.67951500  0.51487300  0.27749900  1
  C  356  1  0.77680900  0.53701300  0.26087900  1
  C  358  1  0.73068500  0.51012900  0.19439000  1
  C  361  1  0.50212300  0.46459600  0.26002800  1
  C  367  1  0.67341900  0.91326300  0.72331400  1
  C  368  1  0.65163900  0.95949300  0.70158500  1
  C  369  1  0.68811200  0.00585400  0.72004100  1
  C  371  1  0.76130000  0.96047700  0.77680900  1
  C  374  1  0.64217700  0.86076800  0.70958000  1
  C  380  1  0.25074000  0.56254800  0.72419200  1
  C  381  1  0.27181600  0.51636100  0.70231900  1
  C  382  1  0.23451700  0.47002000  0.72058400  1
  C  384  1  0.16202900  0.51532900  0.77749000  1
  C  387  1  0.28287300  0.61501100  0.71065700  1
  H  7  1  0.16400500  0.03546000  0.97346200  1
  H  8  1  0.86713700  0.88843600  0.98632500  1
  H  9  1  0.85125700  0.01379900  0.91849900  1
  H  10  1  0.13495400  0.88917800  0.88423200  1
  H  13  1  0.22517800  0.91877700  0.95396600  1
  H  14  1  0.13181900  0.86656300  0.96078700  1
  H  16  1  0.71769500  0.82332800  0.98717100  1
  H  17  1  0.30186000  0.10664000  0.97459600  1
  H  25  1  0.76262000  0.43825700  0.97527900  1
  H  26  1  0.07263800  0.46140300  0.91897000  1
  H  27  1  0.78996200  0.58703200  0.88586600  1
  H  28  1  0.18774100  0.39519000  0.98644600  1
  H  30  1  0.70061800  0.55876000  0.95529200  1
  H  31  1  0.79946300  0.60876600  0.96312400  1
  H  33  1  0.63263000  0.36480700  0.96885300  1
  H  36  1  0.63229700  0.20209200  0.96503500  1
  H  40  1  0.50355100  0.62665800  0.95136600  1
  H  41  1  0.55082200  0.67835200  0.92104700  1
  H  42  1  0.63187500  0.65660000  0.96214000  1
  H  145  1  0.54235600  0.93167100  0.01921100  1
  H  146  1  0.60011300  0.01902900  0.02453000  1
  H  147  1  0.87977200  0.15709900  0.01309800  1
  H  148  1  0.06203000  0.18731200  0.00051000  1
  H  149  1  0.97209600  0.99465000  0.06933100  1
  H  150  1  0.23974300  0.89536600  0.09506100  1
  H  151  1  0.25716300  0.87579000  0.02543000  1
  H  152  1  0.01559100  0.92109600  0.83312100  1
  H  154  1  0.74103100  0.08320100  0.99052400  1
  H  155  1  0.77856400  0.07491200  0.04167900  1
  H  158  1  0.80011100  0.01798900  0.84551600  1
  H  160  1  0.02212400  0.97196600  0.14015700  1
  H  178  1  0.37764300  0.54977100  0.02007500  1
  H  179  1  0.32887300  0.46069100  0.02146800  1
  H  180  1  0.05412200  0.31840000  0.01103700  1
  H  181  1  0.87134200  0.28689200  0.00014600  1
  H  182  1  0.04780400  0.58814500  0.99088500  1
  H  183  1  0.95235100  0.47874900  0.07010800  1
  H  184  1  0.68580800  0.57836000  0.09670400  1
  H  185  1  0.66837600  0.59883800  0.02726800  1
  H  186  1  0.90827100  0.55523000  0.83435300  1
  H  189  1  0.15698900  0.40052900  0.03841800  1
  H  192  1  0.18506600  0.65645700  0.01104900  1
  H  193  1  0.12128600  0.45715800  0.84582000  1
  H  195  1  0.90336300  0.50154700  0.14145600  1
  H  220  1  0.04196600  0.54362000  0.45741900  1
  H  221  1  0.09945200  0.45612900  0.45304400  1
  H  222  1  0.37900600  0.31814800  0.46545800  1
  H  223  1  0.56165200  0.28815600  0.47763900  1
  H  224  1  0.66419900  0.44041400  0.50306200  1
  H  225  1  0.36750500  0.58737600  0.48876500  1
  H  226  1  0.47594700  0.47544400  0.40799300  1
  H  227  1  0.74103800  0.57480700  0.37905400  1
  H  228  1  0.75357300  0.60018000  0.44768000  1
  H  229  1  0.35424000  0.46277500  0.55842300  1
  H  230  1  0.63099400  0.59207300  0.58955300  1
  H  231  1  0.51366900  0.56074300  0.64143900  1
  H  234  1  0.24061200  0.39263400  0.48757100  1
  H  235  1  0.27758500  0.39971700  0.43625600  1
  H  237  1  0.72261600  0.56145000  0.52040600  1
  H  238  1  0.62530800  0.61173100  0.51223500  1
  H  242  1  0.21804800  0.65249400  0.48779900  1
  H  243  1  0.80149800  0.36880100  0.50377800  1
  H  244  1  0.31352200  0.45691800  0.63346000  1
  H  246  1  0.54160000  0.48032300  0.33933400  1
  H  271  1  0.87788600  0.92630500  0.45648900  1
  H  272  1  0.82939900  0.01543800  0.45583000  1
  H  273  1  0.55489600  0.15781400  0.46717800  1
  H  274  1  0.37198900  0.18923300  0.47796700  1
  H  275  1  0.26266700  0.03756700  0.50138600  1
  H  276  1  0.54725600  0.88769700  0.48414700  1
  H  277  1  0.44820600  0.00243300  0.40703100  1
  H  278  1  0.18381200  0.90283800  0.37762200  1
  H  279  1  0.17122700  0.87704800  0.44611200  1
  H  280  1  0.57033200  0.01354700  0.55775800  1
  H  281  1  0.29354900  0.88397300  0.58804900  1
  H  282  1  0.41031700  0.91504800  0.64023000  1
  H  285  1  0.68817100  0.08041700  0.49118700  1
  H  286  1  0.65772500  0.07612600  0.43913500  1
  H  288  1  0.20284700  0.91384300  0.51914900  1
  H  289  1  0.30394300  0.86513400  0.51020400  1
  H  293  1  0.68485900  0.81952000  0.46419100  1
  H  294  1  0.13276700  0.11107100  0.50824600  1
  H  295  1  0.61034200  0.01905600  0.63282600  1
  H  297  1  0.38251900  0.99772000  0.33808000  1
  H  303  1  0.51270000  0.35916300  0.02996100  1
  H  304  1  0.39402900  0.33265700  0.05274500  1
  H  305  1  0.38366900  0.36195800  0.00463800  1
  H  314  1  0.13259300  0.27385200  0.51190400  1
  H  316  1  0.01314200  0.11666100  0.44710500  1
  H  317  1  0.89436700  0.14309300  0.42433900  1
  H  318  1  0.88416200  0.11382300  0.47246200  1
  H  325  1  0.28518800  0.73345300  0.03953400  1
  H  334  1  0.78399800  0.74192200  0.43660200  1
  H  336  1  0.00442400  0.84934000  0.52364700  1
  H  337  1  0.05257100  0.79782300  0.55401500  1
  H  338  1  0.13234300  0.81926400  0.51252100  1
  H  347  1  0.09402300  0.92013000  0.27796200  1
  H  349  1  0.40855700  0.04412000  0.27773400  1
  H  350  1  0.46735600  0.02514500  0.23144000  1
  H  351  1  0.47856400  0.98359100  0.27336800  1
  H  360  1  0.83188000  0.55618500  0.27893400  1
  H  362  1  0.51772900  0.43195900  0.28000500  1
  H  363  1  0.45934500  0.44978500  0.23337800  1
  H  364  1  0.44716800  0.49224900  0.27469800  1
  H  373  1  0.67392000  0.04067100  0.70649900  1
  H  375  1  0.60048600  0.86074300  0.68049100  1
  H  376  1  0.71668200  0.83694200  0.70701600  1
  H  377  1  0.58654400  0.84313600  0.73157600  1
  H  386  1  0.24806700  0.43524100  0.70690000  1
  H  388  1  0.32460600  0.61506200  0.68157700  1
  H  389  1  0.20877600  0.63912300  0.70816800  1
  H  390  1  0.33876700  0.63230700  0.73273000  1
  N  35  1  0.46635300  0.18853400  0.97473700  1
  N  38  1  0.54966600  0.74828600  0.98169400  1
  N  301  1  0.36463400  0.25566600  0.00277500  1
  N  306  1  0.27252600  0.17958400  0.98881900  1
  N  307  1  0.65598800  0.29525400  0.99119500  1
  N  311  1  0.96663000  0.28734800  0.50219800  1
  N  313  1  0.86496600  0.22012200  0.47424900  1
  N  319  1  0.77283200  0.29620500  0.48809100  1
  N  320  1  0.15633800  0.18063900  0.48593700  1
  N  323  1  0.41531500  0.78113200  0.02481300  1
  N  326  1  0.56566300  0.83301900  0.00871100  1
  N  327  1  0.34436200  0.64769000  0.99940300  1
  N  331  1  0.91447200  0.69434500  0.45114000  1
  N  333  1  0.04978400  0.72748300  0.49368400  1
  N  339  1  0.06530300  0.64251700  0.46701300  1
  N  340  1  0.84395100  0.82802500  0.47625500  1
  N  344  1  0.12659600  0.94083000  0.21955000  1
  N  346  1  0.28979800  0.98584400  0.20788300  1
  N  352  1  0.18050100  0.96492400  0.15305100  1
  N  353  1  0.26197800  0.95513600  0.31605100  1
  N  357  1  0.79952000  0.53435800  0.22075400  1
  N  359  1  0.63644900  0.48902500  0.20957700  1
  N  365  1  0.74535500  0.50895000  0.15454700  1
  N  366  1  0.66389400  0.52183200  0.31738700  1
  N  370  1  0.74104300  0.00519700  0.75642600  1
  N  372  1  0.72730900  0.91578900  0.75932800  1
  N  378  1  0.81600800  0.95627500  0.81166400  1
  N  379  1  0.59396900  0.95722100  0.66698200  1
  N  383  1  0.18148700  0.47065400  0.75694600  1
  N  385  1  0.19671700  0.56000400  0.76017500  1
  N  391  1  0.10716800  0.51955900  0.81229300  1
  N  392  1  0.32962700  0.51864600  0.66776100  1
