# generated using pymatgen
data_H7C14N4O5
_symmetry_space_group_name_H-M   'P 1'
_cell_length_a   15.68965000
_cell_length_b   27.17518435
_cell_length_c   94.13810000
_cell_angle_alpha   90.00000000
_cell_angle_beta   90.00000000
_cell_angle_gamma   89.99989458
_symmetry_Int_Tables_number   1
_chemical_formula_structural   H7C14N4O5
_chemical_formula_sum   'H168 C336 N96 O120'
_cell_volume   40137.57990452
_cell_formula_units_Z   24
loop_
 _symmetry_equiv_pos_site_id
 _symmetry_equiv_pos_as_xyz
  1  'x, y, z'
loop_
 _atom_site_type_symbol
 _atom_site_label
 _atom_site_symmetry_multiplicity
 _atom_site_fract_x
 _atom_site_fract_y
 _atom_site_fract_z
 _atom_site_occupancy
  C  2  1  0.53670000  0.50674800  0.09440000  1
  C  3  1  0.62570500  0.51056800  0.09154700  1
  C  4  1  0.08074400  0.00572400  0.12019900  1
  C  5  1  0.01959200  0.00424900  0.10907500  1
  C  9  1  0.03022600  0.02288700  0.41633700  1
  C  10  1  0.01533300  0.01343500  0.40152500  1
  C  11  1  0.04672600  0.04356100  0.39037600  1
  C  12  1  0.07902500  0.06613900  0.41912500  1
  C  16  1  0.04151800  0.00332200  0.91639600  1
  C  17  1  0.13045600  0.99833600  0.91915400  1
  C  18  1  0.58051700  0.50781200  0.89041900  1
  C  19  1  0.51885300  0.50811700  0.90147200  1
  C  22  1  0.02470000  0.02338800  0.26084300  1
  C  23  1  0.01883000  0.01087200  0.27563300  1
  C  24  1  0.04788800  0.04174200  0.28679000  1
  C  25  1  0.06385000  0.06977400  0.25804300  1
  C  29  1  0.03570700  0.04823400  0.01235800  1
  C  30  1  0.03528400  0.04710000  0.99740900  1
  C  33  1  0.03010400  0.00750900  0.03531600  1
  C  35  1  0.01409000  0.00793600  0.65660900  1
  C  36  1  0.08520800  0.02513500  0.66457700  1
  C  37  1  0.08386800  0.02409300  0.67977800  1
  C  38  1  0.00827700  0.01273800  0.64183700  1
  C  40  1  0.57119200  0.47978300  0.34568000  1
  C  41  1  0.56903600  0.48036400  0.33073100  1
  C  44  1  0.83028700  0.21383200  0.59004100  1
  C  45  1  0.81291800  0.23921200  0.60298000  1
  C  46  1  0.76607800  0.28449700  0.60286300  1
  C  51  1  0.87441900  0.16828700  0.58982800  1
  C  53  1  0.02153600  0.00507400  0.18692000  1
  C  54  1  0.98811100  0.04476000  0.17864300  1
  C  55  1  0.98079200  0.04058000  0.16358500  1
  C  60  1  0.03329300  0.00756900  0.20169000  1
  C  62  1  0.02591900  0.00711700  0.82330900  1
  C  63  1  0.07015900  0.04192200  0.83168300  1
  C  64  1  0.06006800  0.04352200  0.84653400  1
  C  65  1  0.03936000  0.00548000  0.80862500  1
  C  67  1  0.08153100  0.99740100  0.51208800  1
  C  68  1  0.07884800  0.00331800  0.49703900  1
  C  75  1  0.04120200  0.00697600  0.09428600  1
  C  76  1  0.13040800  0.01073000  0.09157200  1
  C  77  1  0.57747600  0.50561900  0.12025800  1
  C  78  1  0.51581800  0.50399200  0.10922100  1
  C  82  1  0.53022400  0.52289200  0.41634200  1
  C  83  1  0.51532600  0.51344200  0.40153000  1
  C  84  1  0.54672100  0.54356500  0.39038300  1
  C  85  1  0.57902800  0.56614100  0.41912900  1
  C  89  1  0.53972200  0.50336300  0.91624200  1
  C  90  1  0.62853400  0.49839100  0.91908600  1
  C  91  1  0.08156800  0.00777100  0.89054100  1
  C  92  1  0.02019600  0.00801700  0.90164400  1
  C  95  1  0.52468900  0.52341800  0.26088300  1
  C  96  1  0.51884600  0.51090700  0.27567200  1
  C  97  1  0.54792700  0.54178400  0.28682300  1
  C  98  1  0.56381600  0.56980900  0.25807700  1
  C  102  1  0.52054800  0.54851100  0.01234100  1
  C  103  1  0.52112800  0.54721500  0.99739300  1
  C  106  1  0.51977300  0.50776400  0.03530500  1
  C  108  1  0.51409400  0.50795900  0.65659400  1
  C  109  1  0.58521200  0.52515500  0.66456300  1
  C  110  1  0.58386400  0.52409900  0.67976200  1
  C  111  1  0.50829700  0.51276100  0.64182300  1
  C  113  1  0.07120700  0.97979700  0.34566300  1
  C  114  1  0.06903300  0.98037800  0.33071400  1
  C  117  1  0.33028300  0.71383400  0.59004000  1
  C  118  1  0.31291500  0.73921400  0.60298000  1
  C  119  1  0.26607800  0.78449800  0.60286400  1
  C  124  1  0.37441800  0.66828900  0.58982700  1
  C  126  1  0.52156000  0.50514400  0.18701200  1
  C  127  1  0.48800400  0.54479400  0.17873600  1
  C  128  1  0.48027500  0.54048900  0.16368900  1
  C  133  1  0.53342500  0.50767200  0.20177400  1
  C  135  1  0.52603500  0.50697700  0.82320300  1
  C  136  1  0.57022500  0.54186500  0.83155400  1
  C  137  1  0.55997600  0.54361600  0.84639900  1
  C  138  1  0.53938500  0.50529900  0.80852400  1
  C  140  1  0.58153100  0.49740200  0.51208800  1
  C  141  1  0.57885000  0.50331900  0.49703900  1
  C  147  1  0.52057100  0.49881500  0.73482000  1
  C  148  1  0.55000400  0.46803700  0.72367200  1
  C  150  1  0.01028400  0.00862900  0.77587100  1
  C  153  1  0.53076500  0.48943800  0.59423700  1
  C  154  1  0.59483100  0.42673100  0.61656800  1
  C  155  1  0.61250400  0.41556200  0.60224300  1
  C  156  1  0.58082600  0.44669400  0.59143600  1
  C  158  1  0.99940300  0.02057600  0.58289800  1
  C  159  1  0.96262100  0.06751800  0.58573100  1
  C  160  1  0.92981600  0.09902600  0.57509200  1
  C  161  1  0.93594700  0.08441400  0.56076200  1
  C  168  1  0.52352600  0.50278500  0.97516900  1
  C  170  1  0.51081900  0.50597600  0.68716000  1
  C  173  1  0.73650600  0.30496900  0.58977700  1
  C  174  1  0.75621800  0.27956100  0.57709200  1
  C  175  1  0.80154100  0.23510000  0.57720800  1
  C  178  1  0.68827500  0.34899500  0.58850300  1
  C  180  1  0.50592600  0.51024100  0.85360200  1
  C  181  1  0.02057900  0.99886900  0.73486300  1
  C  182  1  0.04998200  0.96810200  0.72370800  1
  C  184  1  0.51026200  0.50861800  0.77581400  1
  C  187  1  0.03075800  0.98944200  0.59424200  1
  C  188  1  0.09482800  0.92673000  0.61657300  1
  C  189  1  0.11249900  0.91556600  0.60224800  1
  C  190  1  0.08081800  0.94669300  0.59144200  1
  C  192  1  0.49940300  0.52057700  0.58289400  1
  C  193  1  0.46262200  0.56752100  0.58572800  1
  C  194  1  0.42981400  0.59903100  0.57509000  1
  C  195  1  0.43594000  0.58441800  0.56076000  1
  C  202  1  0.03038200  0.00317800  0.97512400  1
  C  204  1  0.01083100  0.00597800  0.68717900  1
  C  207  1  0.23650000  0.80497200  0.58977900  1
  C  208  1  0.25621200  0.77956700  0.57709300  1
  C  209  1  0.30153500  0.73510300  0.57720800  1
  C  212  1  0.18826500  0.84899800  0.58850700  1
  C  214  1  0.00610900  0.01007800  0.85373300  1
  C  215  1  0.68930000  0.51151000  0.10219400  1
  C  216  1  0.66423900  0.50997200  0.11655700  1
  C  218  1  0.09304700  0.08614400  0.39399600  1
  C  219  1  0.11010800  0.09747500  0.40832200  1
  C  223  1  0.19398000  0.99913100  0.90849200  1
  C  224  1  0.16852400  0.00335500  0.89418200  1
  C  227  1  0.08687100  0.08674000  0.28317400  1
  C  228  1  0.09474700  0.10116500  0.26885100  1
  C  240  1  0.19369900  0.01147900  0.10227800  1
  C  241  1  0.16777600  0.00989000  0.11660700  1
  C  243  1  0.59304900  0.58614800  0.39400000  1
  C  244  1  0.61011100  0.59747800  0.40832700  1
  C  248  1  0.69223400  0.49908000  0.90845700  1
  C  249  1  0.66731200  0.50327500  0.89412400  1
  C  252  1  0.58690900  0.58678100  0.28320400  1
  C  253  1  0.59475000  0.60120200  0.26888100  1
  C  265  1  0.02366000  0.00500700  0.02049200  1
  C  266  1  0.02300600  0.00263800  0.98993100  1
  C  273  1  0.32537800  0.01592600  0.08749900  1
  C  275  1  0.18537200  0.16421200  0.42205500  1
  C  277  1  0.82378900  0.49220200  0.92320000  1
  C  279  1  0.15667800  0.17237100  0.25512300  1
  C  287  1  0.82082200  0.51609100  0.08739500  1
  C  289  1  0.68537500  0.66421500  0.42205900  1
  C  291  1  0.32564700  0.99233000  0.92322400  1
  C  293  1  0.65666600  0.67238100  0.25513800  1
  C  295  1  0.51173500  0.50508500  0.02050100  1
  C  296  1  0.54674500  0.46869500  0.62018000  1
  C  297  1  0.50949700  0.50504500  0.35386800  1
  C  298  1  0.04674500  0.96869500  0.62018800  1
  C  299  1  0.00952500  0.00505500  0.35385500  1
  C  300  1  0.51489400  0.49862700  0.60902200  1
  C  301  1  0.01489600  0.99863000  0.60902900  1
  C  302  1  0.00468900  0.00601100  0.32328900  1
  C  303  1  0.50469700  0.50600100  0.32330600  1
  C  304  1  0.47433800  0.50637300  0.08303500  1
  C  305  1  0.00209800  0.00426000  0.06805600  1
  C  306  1  0.94216000  0.00526900  0.05677800  1
  C  307  1  0.34802000  0.50612300  0.06069800  1
  C  308  1  0.32250300  0.50898900  0.07502400  1
  C  309  1  0.38505800  0.50913300  0.08582400  1
  C  316  1  0.52731100  0.48664200  0.74963200  1
  C  319  1  0.59067700  0.42357000  0.72729000  1
  C  320  1  0.59918500  0.40938400  0.74161700  1
  C  321  1  0.56776000  0.44060700  0.75241800  1
  C  324  1  0.99567100  0.01767600  0.76104800  1
  C  325  1  0.94542700  0.06026300  0.75819600  1
  C  326  1  0.91228100  0.09162100  0.76884000  1
  C  327  1  0.92721800  0.07989700  0.78320400  1
  C  328  1  0.97708900  0.03867600  0.78691200  1
  C  340  1  0.49960900  0.49151800  0.42770800  1
  C  341  1  0.46078500  0.44512200  0.42485100  1
  C  342  1  0.43043100  0.41283600  0.43549500  1
  C  343  1  0.44071900  0.42610100  0.44985900  1
  C  344  1  0.47762900  0.47164300  0.45356400  1
  C  345  1  0.50599400  0.50330400  0.44253000  1
  C  361  1  0.97230100  0.03867200  0.55706900  1
  C  362  1  0.00253900  0.00768600  0.56813300  1
  C  373  1  0.97951000  0.00321200  0.92780500  1
  C  374  1  0.49903100  0.50660100  0.94237200  1
  C  375  1  0.43821000  0.50565500  0.95353000  1
  C  376  1  0.85469000  0.00212200  0.95034400  1
  C  377  1  0.82813500  0.99929300  0.93604900  1
  C  378  1  0.89016900  0.99975300  0.92514600  1
  C  386  1  0.49362500  0.49217300  0.24954100  1
  C  387  1  0.44159200  0.45032200  0.25238000  1
  C  388  1  0.41069900  0.41816800  0.24174400  1
  C  389  1  0.42952100  0.42853000  0.22741300  1
  C  390  1  0.47998800  0.46956000  0.22371500  1
  C  391  1  0.51138200  0.50017300  0.23477600  1
  C  397  1  0.51340600  0.50236200  0.98993900  1
  C  398  1  0.50287500  0.45827800  0.99791500  1
  C  399  1  0.50176000  0.45952500  0.01311400  1
  C  409  1  0.44159200  0.48820900  0.67900300  1
  C  410  1  0.44326800  0.48902600  0.66405500  1
  C  413  1  0.50265300  0.50900800  0.70196400  1
  C  416  1  0.94286200  0.03246700  0.33129500  1
  C  417  1  0.94522000  0.03216300  0.34649400  1
  C  424  1  0.50926900  0.49935200  0.36867000  1
  C  426  1  0.00046600  0.00103700  0.30851500  1
  C  428  1  0.09464500  0.51514600  0.08745600  1
  C  429  1  0.04670700  0.51350100  0.10016100  1
  C  430  1  0.95738200  0.51410100  0.10003900  1
  C  431  1  0.41577600  0.01632400  0.08708700  1
  C  432  1  0.46162100  0.01906000  0.07402000  1
  C  435  1  0.55301000  0.01820500  0.07393800  1
  C  442  1  0.18476600  0.51322900  0.08875700  1
  C  444  1  0.70393000  0.29239400  0.75406000  1
  C  445  1  0.73043400  0.26929800  0.76676900  1
  C  446  1  0.77422800  0.22434400  0.76665800  1
  C  447  1  0.79350200  0.19992500  0.75380100  1
  C  448  1  0.76612100  0.22191200  0.74082700  1
  C  451  1  0.72163200  0.26796700  0.74094300  1
  C  458  1  0.66171300  0.33840800  0.75535300  1
  C  460  1  0.83952900  0.15503400  0.75403100  1
  C  462  1  0.23329800  0.20831700  0.42075600  1
  C  463  1  0.25477500  0.23311600  0.43346100  1
  C  464  1  0.30031000  0.27748700  0.43334000  1
  C  465  1  0.32721900  0.29932800  0.42047800  1
  C  466  1  0.30786900  0.27463800  0.40750800  1
  C  469  1  0.26103400  0.22936900  0.40763300  1
  C  476  1  0.37153400  0.34478800  0.42069500  1
  C  487  1  0.59982800  0.99315500  0.92355100  1
  C  488  1  0.55237100  0.99613500  0.91080500  1
  C  489  1  0.46298200  0.99561600  0.91079400  1
  C  490  1  0.91416900  0.49149500  0.92340800  1
  C  491  1  0.96093700  0.48749600  0.93634700  1
  C  494  1  0.05227900  0.48825000  0.93622500  1
  C  501  1  0.69009400  0.99526300  0.92239700  1
  C  503  1  0.19857300  0.21850300  0.25640800  1
  C  504  1  0.22682700  0.24109200  0.24372600  1
  C  505  1  0.27080400  0.28599900  0.24385100  1
  C  506  1  0.28830800  0.31098400  0.25668800  1
  C  507  1  0.25894900  0.28957400  0.26962400  1
  C  510  1  0.21447000  0.24350200  0.26950000  1
  C  517  1  0.33452100  0.35583700  0.25648200  1
  C  519  1  0.50599000  0.49648900  0.15662500  1
  C  520  1  0.53843200  0.45745700  0.16494300  1
  C  521  1  0.54655500  0.46185100  0.17977800  1
  C  526  1  0.49678100  0.49051300  0.14196200  1
  C  529  1  0.46121600  0.47454600  0.84529400  1
  C  530  1  0.47123000  0.47292300  0.83024200  1
  C  537  1  0.49701300  0.51440200  0.86837800  1
  C  539  1  0.99988700  0.01211300  0.48997500  1
  C  540  1  0.92506700  0.01511300  0.49828900  1
  C  541  1  0.92768600  0.00898000  0.51312900  1
  C  542  1  0.00524600  0.00018700  0.52036300  1
  C  545  1  0.99539400  0.01930800  0.47528800  1
  C  547  1  0.00326000  0.99299600  0.53511900  1
  C  548  1  0.97941500  0.00669500  0.08282200  1
  C  549  1  0.49595900  0.50366800  0.06822200  1
  C  550  1  0.43505400  0.50428300  0.05707800  1
  C  551  1  0.85479400  0.00710600  0.06020800  1
  C  552  1  0.82796500  0.00939600  0.07448900  1
  C  553  1  0.88987100  0.00923100  0.08541700  1
  C  560  1  0.02734300  0.98668600  0.74967500  1
  C  563  1  0.09064100  0.92362800  0.72732200  1
  C  564  1  0.09917600  0.90942800  0.74164700  1
  C  565  1  0.06779900  0.94064700  0.75245500  1
  C  568  1  0.49561600  0.51765500  0.76099500  1
  C  569  1  0.44537100  0.56024600  0.75814300  1
  C  570  1  0.41225400  0.59160500  0.76879000  1
  C  571  1  0.42721300  0.57988900  0.78315300  1
  C  572  1  0.47709400  0.53866700  0.78685400  1
  C  584  1  0.99961000  0.99152100  0.42770400  1
  C  585  1  0.96078200  0.94512600  0.42484900  1
  C  586  1  0.93043100  0.91283900  0.43549300  1
  C  587  1  0.94072200  0.92610800  0.44985800  1
  C  588  1  0.97763000  0.97164600  0.45356100  1
  C  589  1  0.00599700  0.00330700  0.44252600  1
  C  605  1  0.47229600  0.53867800  0.55706600  1
  C  606  1  0.50253700  0.50769000  0.56813000  1
  C  617  1  0.47732300  0.50325300  0.92758400  1
  C  618  1  0.00198400  0.00641300  0.94255700  1
  C  619  1  0.94193600  0.00516200  0.95382300  1
  C  620  1  0.35122100  0.50261600  0.94991700  1
  C  621  1  0.32564400  0.49937000  0.93559200  1
  C  622  1  0.38816900  0.49962100  0.92478500  1
  C  630  1  0.99364500  0.99216100  0.24949400  1
  C  631  1  0.94162700  0.95030300  0.25233600  1
  C  632  1  0.91071400  0.91814100  0.24170400  1
  C  633  1  0.92951400  0.92849600  0.22737100  1
  C  634  1  0.97994900  0.96953400  0.22366200  1
  C  635  1  0.01133900  0.00016100  0.23472400  1
  C  642  1  0.01066900  0.95866700  0.99788200  1
  C  643  1  0.01093700  0.95972700  0.01308200  1
  C  653  1  0.94159800  0.98821300  0.67902400  1
  C  654  1  0.94326800  0.98901500  0.66407400  1
  C  657  1  0.00265300  0.00904500  0.70198600  1
  C  660  1  0.44286100  0.53245900  0.33130800  1
  C  661  1  0.44519800  0.53215800  0.34650600  1
  C  668  1  0.00931200  0.99935500  0.36865700  1
  C  670  1  0.50051700  0.50104100  0.30853300  1
  C  672  1  0.59949500  0.01470000  0.08695100  1
  C  673  1  0.55238800  0.01285000  0.09975000  1
  C  674  1  0.46301700  0.01354500  0.09983400  1
  C  675  1  0.91117200  0.51663600  0.08717700  1
  C  676  1  0.95788400  0.51927800  0.07420700  1
  C  679  1  0.04920500  0.51846900  0.07433200  1
  C  686  1  0.68978500  0.01284400  0.08807600  1
  C  688  1  0.20391800  0.79240600  0.75406100  1
  C  689  1  0.23044800  0.76928200  0.76676400  1
  C  690  1  0.27423300  0.72432500  0.76664100  1
  C  691  1  0.29347100  0.69993500  0.75377900  1
  C  692  1  0.26606800  0.72195200  0.74081000  1
  C  695  1  0.22158700  0.76800800  0.74093800  1
  C  702  1  0.16171300  0.83841800  0.75536700  1
  C  704  1  0.33948700  0.65504200  0.75399400  1
  C  706  1  0.73330200  0.70831800  0.42075700  1
  C  707  1  0.75477700  0.73312000  0.43346200  1
  C  708  1  0.80031500  0.77749100  0.43334000  1
  C  709  1  0.82721900  0.79933100  0.42047800  1
  C  710  1  0.80787000  0.77463900  0.40750800  1
  C  713  1  0.76103300  0.72937000  0.40763400  1
  C  720  1  0.87153400  0.84479200  0.42069500  1
  C  731  1  0.09774800  0.49276900  0.92313500  1
  C  732  1  0.04976700  0.49562400  0.91045100  1
  C  733  1  0.96041700  0.49520800  0.91057300  1
  C  734  1  0.41606700  0.99171600  0.92355400  1
  C  735  1  0.46229200  0.98763500  0.93655200  1
  C  738  1  0.55367700  0.98844100  0.93656300  1
  C  745  1  0.18789700  0.49484400  0.92185500  1
  C  747  1  0.69857400  0.71851100  0.25641300  1
  C  748  1  0.72680900  0.74107600  0.24372600  1
  C  749  1  0.77079800  0.78598100  0.24384200  1
  C  750  1  0.78833300  0.81098500  0.25667400  1
  C  751  1  0.75898700  0.78960200  0.26961600  1
  C  754  1  0.71450100  0.74353000  0.26949900  1
  C  761  1  0.83455400  0.85583500  0.25645700  1
  C  763  1  0.00701900  0.99672800  0.15649700  1
  C  764  1  0.03914100  0.95761500  0.16481800  1
  C  765  1  0.04670700  0.96183900  0.17967000  1
  C  770  1  0.99858500  0.99096100  0.14180400  1
  C  773  1  0.96123600  0.97452000  0.84539700  1
  C  774  1  0.97115200  0.97301900  0.83034000  1
  C  781  1  0.99746200  0.01404200  0.86852700  1
  C  783  1  0.49988500  0.51211400  0.48997500  1
  C  784  1  0.42506600  0.51511300  0.49828800  1
  C  785  1  0.42768000  0.50897800  0.51312800  1
  C  786  1  0.50524500  0.50018700  0.52036200  1
  C  789  1  0.49539200  0.51930800  0.47528800  1
  C  791  1  0.50325700  0.49299700  0.53511800  1
  H  1  1  0.06376800  0.00017600  0.06502700  1
  H  6  1  0.64651500  0.51408600  0.08142600  1
  H  8  1  0.67807800  0.40433500  0.71458200  1
  H  13  1  0.03157300  0.03583000  0.44574000  1
  H  15  1  0.56047500  0.51188200  0.94544500  1
  H  20  1  0.15108600  0.99252200  0.92920900  1
  H  26  1  0.05052700  0.02801300  0.23166800  1
  H  27  1  0.06813100  0.08275100  0.24794400  1
  H  31  1  0.04593200  0.07925300  0.99200900  1
  H  32  1  0.04621300  0.08127400  0.01729600  1
  H  34  1  0.07538900  0.02921800  0.03925300  1
  H  39  1  0.02054800  0.04609600  0.63801900  1
  H  42  1  0.61369700  0.46029800  0.32530100  1
  H  43  1  0.61763800  0.45944100  0.35057900  1
  H  52  1  0.89336100  0.15301000  0.59920200  1
  H  61  1  0.04607900  0.04008800  0.20593400  1
  H  66  1  0.09972500  0.00604100  0.80544600  1
  H  73  1  0.04611800  0.97079600  0.53943100  1
  H  74  1  0.55746200  0.49958400  0.06507200  1
  H  79  1  0.15163300  0.01434500  0.08149200  1
  H  81  1  0.17800900  0.90439000  0.71460500  1
  H  86  1  0.53156800  0.53583000  0.44574400  1
  H  88  1  0.06356700  0.01175000  0.94553300  1
  H  93  1  0.64889400  0.49270200  0.92916800  1
  H  99  1  0.55063300  0.52799900  0.23172400  1
  H  100  1  0.56803500  0.58279200  0.24797900  1
  H  104  1  0.53009300  0.57952100  0.99198300  1
  H  105  1  0.52874300  0.58180600  0.01725900  1
  H  107  1  0.56408600  0.53044600  0.03909200  1
  H  112  1  0.52062500  0.54611100  0.63800400  1
  H  115  1  0.11368100  0.96030500  0.32528300  1
  H  116  1  0.11765800  0.95945100  0.35055900  1
  H  125  1  0.39336100  0.65301000  0.59919900  1
  H  134  1  0.54593000  0.54022700  0.20601800  1
  H  139  1  0.59973700  0.50579500  0.80533800  1
  H  146  1  0.54611800  0.47080000  0.53943000  1
  H  149  1  0.99602700  0.03168700  0.73172000  1
  H  151  1  0.54636800  0.47960600  0.77902000  1
  H  163  1  0.95055600  0.13608800  0.54749000  1
  H  164  1  0.59817800  0.43807600  0.58133800  1
  H  165  1  0.96104300  0.08056700  0.59581100  1
  H  169  1  0.56723200  0.47982700  0.97136200  1
  H  176  1  0.81267600  0.21826000  0.56766100  1
  H  177  1  0.73640200  0.29281800  0.56745000  1
  H  179  1  0.67130800  0.36139900  0.57863600  1
  H  183  1  0.49601800  0.53163100  0.73167500  1
  H  185  1  0.04635400  0.97960200  0.77907800  1
  H  197  1  0.45054700  0.63609400  0.54748800  1
  H  198  1  0.09816800  0.93807500  0.58134400  1
  H  199  1  0.46105500  0.58056900  0.59580900  1
  H  203  1  0.07448300  0.98083100  0.97114300  1
  H  210  1  0.31266600  0.71826500  0.56766100  1
  H  211  1  0.23639200  0.79282500  0.56745100  1
  H  213  1  0.17129900  0.86140200  0.57863900  1
  H  221  1  0.07813100  0.13947100  0.38129300  1
  H  222  1  0.09537200  0.07532000  0.42921600  1
  H  226  1  0.23834300  0.97029600  0.88083700  1
  H  236  1  0.09291700  0.06980500  0.85209300  1
  H  237  1  0.11025500  0.06683100  0.82698900  1
  H  246  1  0.57813000  0.63946900  0.38129600  1
  H  247  1  0.59537700  0.57532200  0.42922200  1
  H  251  1  0.73770700  0.47014500  0.88087400  1
  H  261  1  0.59271900  0.56997500  0.85194500  1
  H  262  1  0.61030800  0.56675200  0.82684800  1
  H  267  1  0.73452800  0.54569600  0.12924100  1
  H  271  1  0.17406500  0.10701000  0.29578900  1
  H  274  1  0.29270500  0.01689400  0.07815100  1
  H  276  1  0.16956200  0.15142000  0.43193600  1
  H  278  1  0.79140100  0.49037700  0.93257400  1
  H  280  1  0.14655100  0.15771000  0.24525200  1
  H  281  1  0.23707700  0.04545200  0.12947300  1
  H  285  1  0.67413300  0.60705300  0.29581100  1
  H  288  1  0.78846200  0.51688600  0.07800900  1
  H  290  1  0.66956900  0.65142400  0.43193800  1
  H  292  1  0.29305900  0.99039500  0.93257400  1
  H  294  1  0.64651400  0.65770200  0.24527100  1
  H  311  1  0.95780600  0.00094900  0.11219200  1
  H  312  1  0.27549500  0.47198900  0.04799700  1
  H  313  1  0.36312000  0.51272400  0.09591600  1
  H  332  1  0.83854400  0.09721300  0.79589600  1
  H  333  1  0.57334300  0.42784200  0.76251100  1
  H  334  1  0.92965600  0.06887400  0.74807600  1
  H  339  1  0.47841400  0.48474300  0.39838200  1
  H  347  1  0.45920400  0.37304600  0.46252600  1
  H  348  1  0.45560700  0.43297200  0.41473000  1
  H  355  1  0.97624700  0.02671400  0.61209900  1
  H  364  1  0.52464800  0.47414900  0.56508300  1
  H  365  1  0.58171200  0.37300900  0.62918600  1
  H  380  1  0.45746400  0.51365900  0.89841000  1
  H  381  1  0.78086300  0.03521800  0.96306600  1
  H  382  1  0.86809400  0.99573400  0.91506600  1
  H  385  1  0.49600400  0.47755300  0.27874700  1
  H  393  1  0.34467600  0.40999500  0.21414600  1
  H  394  1  0.42282800  0.44301000  0.26246100  1
  H  411  1  0.39045100  0.47714100  0.65865100  1
  H  412  1  0.38767200  0.47551800  0.68392700  1
  H  414  1  0.44604200  0.51933700  0.70566600  1
  H  425  1  0.52263600  0.46592400  0.37235000  1
  H  427  1  0.94461500  0.99021800  0.30460900  1
  H  433  1  0.92654500  0.51223500  0.10960600  1
  H  434  1  0.07649200  0.51117500  0.10982600  1
  H  443  1  0.21185600  0.51175300  0.09863700  1
  H  449  1  0.79248800  0.20989600  0.77622700  1
  H  450  1  0.71904800  0.28538100  0.77643200  1
  H  459  1  0.65045800  0.35273100  0.76523000  1
  H  461  1  0.85448500  0.13842600  0.74464700  1
  H  467  1  0.31286500  0.29386100  0.44290600  1
  H  468  1  0.23634300  0.21940300  0.44312600  1
  H  477  1  0.38889700  0.36057500  0.41131000  1
  H  492  1  0.43258200  0.99851600  0.90121000  1
  H  493  1  0.58261000  0.99949500  0.90120600  1
  H  502  1  0.71736700  0.99768100  0.91254800  1
  H  508  1  0.29045000  0.30002100  0.23430600  1
  H  509  1  0.21681300  0.22459000  0.23408100  1
  H  518  1  0.34798200  0.37293200  0.26585700  1
  H  522  1  0.57151200  0.43272100  0.18529700  1
  H  523  1  0.55724800  0.42529200  0.16021700  1
  H  527  1  0.46873100  0.45979700  0.13866800  1
  H  538  1  0.44138900  0.50594600  0.87273600  1
  H  543  1  0.87149600  0.01084200  0.51864800  1
  H  544  1  0.86732200  0.02147300  0.49355600  1
  H  546  1  0.96429300  0.04920900  0.47210000  1
  H  555  1  0.45425000  0.50046000  0.11243100  1
  H  556  1  0.78263300  0.97342700  0.04734600  1
  H  557  1  0.86730900  0.01235300  0.09548200  1
  H  576  1  0.33859400  0.59719500  0.79585600  1
  H  577  1  0.07343000  0.92788600  0.76254700  1
  H  578  1  0.42958500  0.56885600  0.74802300  1
  H  583  1  0.97843000  0.98473500  0.39837600  1
  H  591  1  0.95921000  0.87305300  0.46252400  1
  H  592  1  0.95559500  0.93297500  0.41472700  1
  H  599  1  0.47623300  0.52670800  0.61209200  1
  H  608  1  0.02465300  0.97414500  0.56508600  1
  H  609  1  0.08171200  0.87300500  0.62918900  1
  H  624  1  0.95866800  0.01340400  0.89863300  1
  H  625  1  0.27724400  0.53606500  0.96253600  1
  H  626  1  0.36655500  0.49529300  0.91468700  1
  H  629  1  0.99597800  0.97751900  0.27870900  1
  H  637  1  0.84462300  0.90992800  0.21411600  1
  H  638  1  0.92287800  0.94299500  0.26241800  1
  H  655  1  0.89044500  0.97712900  0.65867300  1
  H  656  1  0.88767800  0.97552800  0.68394800  1
  H  658  1  0.94604200  0.01939100  0.70568500  1
  H  669  1  0.02268500  0.96592800  0.37233600  1
  H  671  1  0.44467500  0.49022600  0.30462400  1
  H  677  1  0.43287600  0.01158200  0.10946000  1
  H  678  1  0.58288000  0.01038900  0.10935000  1
  H  687  1  0.71715200  0.01114700  0.09793000  1
  H  693  1  0.29251200  0.70985200  0.77620500  1
  H  694  1  0.21908800  0.78534000  0.77643000  1
  H  703  1  0.15048700  0.85272200  0.76524700  1
  H  705  1  0.35442000  0.63844900  0.74460700  1
  H  711  1  0.81287000  0.79386700  0.44290600  1
  H  712  1  0.73634900  0.71940900  0.44312700  1
  H  721  1  0.88889700  0.86057400  0.41130800  1
  H  736  1  0.92957400  0.49803500  0.90102600  1
  H  737  1  0.07954600  0.49885500  0.90080700  1
  H  746  1  0.21498000  0.49708100  0.91198700  1
  H  752  1  0.79043100  0.79998200  0.23429400  1
  H  753  1  0.71677500  0.72455700  0.23408400  1
  H  762  1  0.84803500  0.87294200  0.26583000  1
  H  766  1  0.07157100  0.93268400  0.18518400  1
  H  767  1  0.05821800  0.92552000  0.16008100  1
  H  771  1  0.97003800  0.96048200  0.13844700  1
  H  782  1  0.94202700  0.00533100  0.87291100  1
  H  787  1  0.37149500  0.51084000  0.51864700  1
  H  788  1  0.36732100  0.52147500  0.49355500  1
  H  790  1  0.46429400  0.54921000  0.47210000  1
  N  7  1  0.06218400  0.00587600  0.13410800  1
  N  14  1  0.03310700  0.03617300  0.37646300  1
  N  21  1  0.56384900  0.51194100  0.87648900  1
  N  28  1  0.04486100  0.03082300  0.30069800  1
  N  47  1  0.84412300  0.21761400  0.61570300  1
  N  48  1  0.74871700  0.31082400  0.61553700  1
  N  56  1  0.95914200  0.08954400  0.18472400  1
  N  57  1  0.94653300  0.08167000  0.15620700  1
  N  69  1  0.16328700  0.98974300  0.51815800  1
  N  70  1  0.15758100  0.00004000  0.48964400  1
  N  80  1  0.55969700  0.50576600  0.13418400  1
  N  87  1  0.53309900  0.53617200  0.37646900  1
  N  94  1  0.06446700  0.01186300  0.87661700  1
  N  101  1  0.54490300  0.53086200  0.30072800  1
  N  120  1  0.34412000  0.71761300  0.61570300  1
  N  121  1  0.24871900  0.81082300  0.61553800  1
  N  129  1  0.45919000  0.58963300  0.18480400  1
  N  130  1  0.44617800  0.58160000  0.15629800  1
  N  142  1  0.66328900  0.48974400  0.51815800  1
  N  143  1  0.65758300  0.50004000  0.48964400  1
  N  152  1  0.54567200  0.47852400  0.70975800  1
  N  166  1  0.89156800  0.14293500  0.57778000  1
  N  167  1  0.65916000  0.37445900  0.59982500  1
  N  186  1  0.04566000  0.97859400  0.70979200  1
  N  200  1  0.39156500  0.64293900  0.57777900  1
  N  201  1  0.15915600  0.87445800  0.59982900  1
  N  230  1  0.15592200  0.04341700  0.65678800  1
  N  231  1  0.15654100  0.04309800  0.68687500  1
  N  255  1  0.65593800  0.54343300  0.65677700  1
  N  256  1  0.65652800  0.54310100  0.68686300  1
  N  268  1  0.77428100  0.51378400  0.09948600  1
  N  269  1  0.15613200  0.13878600  0.41074300  1
  N  270  1  0.27910100  0.99642200  0.91115600  1
  N  272  1  0.13306500  0.14505100  0.26643800  1
  N  282  1  0.27891300  0.01360800  0.09962200  1
  N  283  1  0.65613200  0.63878800  0.41074700  1
  N  284  1  0.77720700  0.49628300  0.91115100  1
  N  286  1  0.63307400  0.64508000  0.26646000  1
  N  314  1  0.23752700  0.51133000  0.07744600  1
  N  315  1  0.96160600  0.00260400  0.04291000  1
  N  335  1  0.98573700  0.02977900  0.80084600  1
  N  336  1  0.86634600  0.13296400  0.76612400  1
  N  337  1  0.63815000  0.36571700  0.74403800  1
  N  349  1  0.48692100  0.48036000  0.46748800  1
  N  350  1  0.39135500  0.36920800  0.43278500  1
  N  369  1  0.97421400  0.02811400  0.54314200  1
  N  372  1  0.53186900  0.47570900  0.63408500  1
  N  383  1  0.74290900  0.99669800  0.93373600  1
  N  384  1  0.45618300  0.50960400  0.96743300  1
  N  395  1  0.49485800  0.47576400  0.20978900  1
  N  396  1  0.36396300  0.37709300  0.24443600  1
  N  400  1  0.49433400  0.41380000  0.99013500  1
  N  401  1  0.49309300  0.41375900  0.02022200  1
  N  418  1  0.87955900  0.05840800  0.32354700  1
  N  419  1  0.87996700  0.05853400  0.35363400  1
  N  436  1  0.41265900  0.02282600  0.06136900  1
  N  437  1  0.60034800  0.02140900  0.06114200  1
  N  452  1  0.78468100  0.19607500  0.72807400  1
  N  453  1  0.69285500  0.29043300  0.72822800  1
  N  470  1  0.33729400  0.29682600  0.39475000  1
  N  471  1  0.24167300  0.20374000  0.39492100  1
  N  495  1  0.91295200  0.48271900  0.94907200  1
  N  496  1  0.10046300  0.48376800  0.94889600  1
  N  511  1  0.27571800  0.31595900  0.28235100  1
  N  512  1  0.18368500  0.22162200  0.28216900  1
  N  531  1  0.40671100  0.43848800  0.85134100  1
  N  532  1  0.42470300  0.43616200  0.82282400  1
  N  558  1  0.74263400  0.01148700  0.07674500  1
  N  559  1  0.45289300  0.50119900  0.04316400  1
  N  579  1  0.48584500  0.52976900  0.80078000  1
  N  580  1  0.36632500  0.63295200  0.76608200  1
  N  581  1  0.13813500  0.86575600  0.74405900  1
  N  593  1  0.98692800  0.98036400  0.46748700  1
  N  594  1  0.89135500  0.86921100  0.43278400  1
  N  613  1  0.47420600  0.52811700  0.54314000  1
  N  616  1  0.03187600  0.97570500  0.63409400  1
  N  627  1  0.24065700  0.49664000  0.93317600  1
  N  628  1  0.96132300  0.00872700  0.96769600  1
  N  639  1  0.99473700  0.97570900  0.20972600  1
  N  640  1  0.86398000  0.87707500  0.24440600  1
  N  644  1  0.99845300  0.91453900  0.99007400  1
  N  645  1  0.00073400  0.91401600  0.02016500  1
  N  662  1  0.37957100  0.55840600  0.32355700  1
  N  663  1  0.37994600  0.55853400  0.35364200  1
  N  680  1  0.90989100  0.52287700  0.06144900  1
  N  681  1  0.09732700  0.52157800  0.06162000  1
  N  696  1  0.28459900  0.69614100  0.72805200  1
  N  697  1  0.19278400  0.79050300  0.72822800  1
  N  714  1  0.83729400  0.79682500  0.39475000  1
  N  715  1  0.74167200  0.70374000  0.39492200  1
  N  739  1  0.41370800  0.98271900  0.94920900  1
  N  740  1  0.60137000  0.98383000  0.94928400  1
  N  755  1  0.77577600  0.81600400  0.28233700  1
  N  756  1  0.68372800  0.72167200  0.28217400  1
  N  775  1  0.90664600  0.93845800  0.85142000  1
  N  776  1  0.92464500  0.93628700  0.82290500  1
  O  49  1  0.90014700  0.24235800  0.62197800  1
  O  50  1  0.81315900  0.32837200  0.62158600  1
  O  58  1  0.01841500  0.11432000  0.19013000  1
  O  59  1  0.99930300  0.10052300  0.14777400  1
  O  71  1  0.17124800  0.94773800  0.52356000  1
  O  72  1  0.15958400  0.96420900  0.48121700  1
  O  122  1  0.40014900  0.74235600  0.62197800  1
  O  123  1  0.31316000  0.82836900  0.62158700  1
  O  131  1  0.51855200  0.61440900  0.19018100  1
  O  132  1  0.49901600  0.60030800  0.14785000  1
  O  144  1  0.67124900  0.44773900  0.52356000  1
  O  145  1  0.65958600  0.46421000  0.48121700  1
  O  157  1  0.62648700  0.39726300  0.62707300  1
  O  162  1  0.90366400  0.11428800  0.55040300  1
  O  171  1  0.75085600  0.30392200  0.71992100  1
  O  172  1  0.83578700  0.21757400  0.71991900  1
  O  191  1  0.12648600  0.89726200  0.62707800  1
  O  196  1  0.40365700  0.61429500  0.55040100  1
  O  205  1  0.25077800  0.80399300  0.71992100  1
  O  206  1  0.33570500  0.71764600  0.71989800  1
  O  217  1  0.72493000  0.51081500  0.12695900  1
  O  220  1  0.12390200  0.11594800  0.38350100  1
  O  225  1  0.22920800  0.00462100  0.88378200  1
  O  229  1  0.11530200  0.11729200  0.29367900  1
  O  232  1  0.22243700  0.01885300  0.65901800  1
  O  233  1  0.19476100  0.01090500  0.69401800  1
  O  234  1  0.17004600  0.08808800  0.65930200  1
  O  235  1  0.13952400  0.07949300  0.69460300  1
  O  238  1  0.18288900  0.02231100  0.52705400  1
  O  239  1  0.17559600  0.03894800  0.48308800  1
  O  242  1  0.22793800  0.01061100  0.12708900  1
  O  245  1  0.62390500  0.61594700  0.38350500  1
  O  250  1  0.72831900  0.50449600  0.88377200  1
  O  254  1  0.61536800  0.61733400  0.29370600  1
  O  257  1  0.72244500  0.51886200  0.65900700  1
  O  258  1  0.69475600  0.51090700  0.69400400  1
  O  259  1  0.67007000  0.58810200  0.65929300  1
  O  260  1  0.63950300  0.57948700  0.69459400  1
  O  263  1  0.68288800  0.52231000  0.52705400  1
  O  264  1  0.67559700  0.53895000  0.48308700  1
  O  310  1  0.28787300  0.50663800  0.05020500  1
  O  323  1  0.61990200  0.39322600  0.71679500  1
  O  330  1  0.89564600  0.10985700  0.79360000  1
  O  346  1  0.41168600  0.39530900  0.46025900  1
  O  379  1  0.79535800  0.00077200  0.96095500  1
  O  392  1  0.40082100  0.39744700  0.21705700  1
  O  402  1  0.42386200  0.39320400  0.99234200  1
  O  403  1  0.42542400  0.41106600  0.02730400  1
  O  404  1  0.55376700  0.38409300  0.99268100  1
  O  405  1  0.55582100  0.40381300  0.02800700  1
  O  420  1  0.88236000  0.10394000  0.32582300  1
  O  421  1  0.90857500  0.09385500  0.36079300  1
  O  422  1  0.80578700  0.04266600  0.32606100  1
  O  423  1  0.83447200  0.03147700  0.36135600  1
  O  438  1  0.42110100  0.06270400  0.05480500  1
  O  439  1  0.59082400  0.98572100  0.05283900  1
  O  440  1  0.41861200  0.98659700  0.05317200  1
  O  441  1  0.59365600  0.06173300  0.05474800  1
  O  454  1  0.72044100  0.18072200  0.72149200  1
  O  457  1  0.63528100  0.26732200  0.72182300  1
  O  472  1  0.39242700  0.27238400  0.38816400  1
  O  473  1  0.19241800  0.22599700  0.38661900  1
  O  474  1  0.27946700  0.31163400  0.38660100  1
  O  475  1  0.30510700  0.18650600  0.38851100  1
  O  483  1  0.70085400  0.28899600  0.62415400  1
  O  484  1  0.78743400  0.20321400  0.62413200  1
  O  497  1  0.92202800  0.44233700  0.95535000  1
  O  498  1  0.09168600  0.51862700  0.95751100  1
  O  499  1  0.91972700  0.51827000  0.95749600  1
  O  500  1  0.09454200  0.44278200  0.95494900  1
  O  513  1  0.21057400  0.33157500  0.28862700  1
  O  514  1  0.24037300  0.20861100  0.29078400  1
  O  515  1  0.32567500  0.29481700  0.29077800  1
  O  516  1  0.12513100  0.24504600  0.28822300  1
  O  524  1  0.90043500  0.08323900  0.19362300  1
  O  525  1  0.87906200  0.07134100  0.14966200  1
  O  533  1  0.44434000  0.41141200  0.86016100  1
  O  534  1  0.47228900  0.40677500  0.81624300  1
  O  535  1  0.34102900  0.45679800  0.85683300  1
  O  536  1  0.37092800  0.45421200  0.81442100  1
  O  554  1  0.79559000  0.00799200  0.04957000  1
  O  567  1  0.11983700  0.89328800  0.71682200  1
  O  574  1  0.39568200  0.60984600  0.79355300  1
  O  590  1  0.91168800  0.89531600  0.46025700  1
  O  623  1  0.29119300  0.50154500  0.96042300  1
  O  636  1  0.90078800  0.89739500  0.21702200  1
  O  646  1  0.92688900  0.89551400  0.99246700  1
  O  647  1  0.93352500  0.91216500  0.02738600  1
  O  648  1  0.05609500  0.88348500  0.99242100  1
  O  649  1  0.06361600  0.90310900  0.02781100  1
  O  664  1  0.38237500  0.60393600  0.32583100  1
  O  665  1  0.40855600  0.59385700  0.36080200  1
  O  666  1  0.30579500  0.54266700  0.32606700  1
  O  667  1  0.33443900  0.53148400  0.36136500  1
  O  682  1  0.91901200  0.56264900  0.05485500  1
  O  683  1  0.08855200  0.48581000  0.05332200  1
  O  684  1  0.91657300  0.48654200  0.05330600  1
  O  685  1  0.09148800  0.56190200  0.05520500  1
  O  698  1  0.22035600  0.68079300  0.72147100  1
  O  701  1  0.13520900  0.76739800  0.72182300  1
  O  716  1  0.89242500  0.77238400  0.38816400  1
  O  717  1  0.69241600  0.72599600  0.38662000  1
  O  718  1  0.77946600  0.81163300  0.38660100  1
  O  719  1  0.80510300  0.68650400  0.38851200  1
  O  727  1  0.20085900  0.78899400  0.62415600  1
  O  728  1  0.28743400  0.70321400  0.62413200  1
  O  741  1  0.42243000  0.94226300  0.95546000  1
  O  742  1  0.59217900  0.01859400  0.95791700  1
  O  743  1  0.42005600  0.01818100  0.95767300  1
  O  744  1  0.59499400  0.94280400  0.95530000  1
  O  757  1  0.71063700  0.83162500  0.28861400  1
  O  758  1  0.74042100  0.70866400  0.29078800  1
  O  759  1  0.82572900  0.79486700  0.29076500  1
  O  760  1  0.62517500  0.74510100  0.28822700  1
  O  768  1  0.40055300  0.58339900  0.19372000  1
  O  769  1  0.37860100  0.57139200  0.14976900  1
  O  777  1  0.94421100  0.91123400  0.86021100  1
  O  778  1  0.97225500  0.90694400  0.81631300  1
  O  779  1  0.84104100  0.95678700  0.85693400  1
  O  780  1  0.87086300  0.95436200  0.81450800  1
