# generated using pymatgen
data_H10C16N3
_symmetry_space_group_name_H-M   'P 1'
_cell_length_a   29.26795000
_cell_length_b   29.26800000
_cell_length_c   37.00670000
_cell_angle_alpha   90.00000000
_cell_angle_beta   90.00000000
_cell_angle_gamma   120.00016954
_symmetry_Int_Tables_number   1
_chemical_formula_structural   H10C16N3
_chemical_formula_sum   'H120 C192 N36'
_cell_volume   27453.36600198
_cell_formula_units_Z   12
loop_
 _symmetry_equiv_pos_site_id
 _symmetry_equiv_pos_as_xyz
  1  'x, y, z'
loop_
 _atom_site_type_symbol
 _atom_site_label
 _atom_site_symmetry_multiplicity
 _atom_site_fract_x
 _atom_site_fract_y
 _atom_site_fract_z
 _atom_site_occupancy
  H  2  1  0.94481200  0.32580800  0.94171100  1
  H  4  1  0.94134100  0.61426200  0.71499200  1
  H  10  1  0.94804800  0.54042700  0.01923500  1
  H  16  1  0.98763900  0.62755000  0.64862900  1
  H  17  1  0.99212100  0.36043000  0.65356600  1
  H  18  1  0.94045400  0.40153800  0.64346500  1
  H  24  1  0.98924900  0.72167700  0.72475000  1
  H  30  1  0.98979200  0.26395400  0.93291800  1
  H  38  1  0.90282100  0.66672000  0.84044400  1
  H  40  1  0.90409500  0.23394200  0.81705800  1
  H  41  1  0.86748200  0.19526000  0.03875800  1
  H  42  1  0.86901600  0.67397000  0.61911500  1
  H  49  1  0.72058900  0.16422300  0.96684600  1
  H  50  1  0.66121400  0.04951600  0.04823200  1
  H  54  1  0.82988000  0.27149800  0.02290500  1
  H  57  1  0.84345300  0.14862700  0.06959600  1
  H  58  1  0.84027900  0.14372600  0.92172300  1
  H  59  1  0.79341100  0.12174600  0.95237600  1
  H  66  1  0.43212100  0.27019500  0.30023500  1
  H  67  1  0.37671100  0.32948200  0.38163900  1
  H  74  1  0.36955000  0.04603800  0.27500700  1
  H  75  1  0.43008000  0.16087000  0.35627400  1
  H  78  1  0.31622200  0.12323100  0.37207600  1
  H  79  1  0.29359600  0.14722200  0.40292200  1
  H  80  1  0.29203700  0.15060700  0.25503000  1
  H  81  1  0.31689600  0.19744100  0.28571100  1
  H  85  1  0.82658200  0.55867000  0.63363400  1
  H  92  1  0.66492900  0.62116000  0.60835500  1
  H  93  1  0.71926500  0.56069300  0.68963700  1
  H  96  1  0.79543600  0.67456100  0.70542700  1
  H  97  1  0.84210000  0.69728900  0.73624200  1
  H  98  1  0.84701800  0.69879000  0.58842300  1
  H  105  1  0.26669700  0.83493800  0.96756800  1
  H  106  1  0.32089300  0.94937100  0.04910800  1
  H  113  1  0.04474700  0.66577600  0.94249200  1
  H  114  1  0.15985200  0.72522500  0.02360400  1
  H  117  1  0.11701500  0.79745200  0.03855600  1
  H  118  1  0.13898900  0.84406400  0.06939900  1
  H  119  1  0.14309600  0.84817100  0.92147400  1
  H  120  1  0.18994800  0.87220400  0.95215800  1
  H  127  1  0.55676300  0.72408600  0.30088400  1
  H  128  1  0.61690600  0.66984100  0.38245300  1
  H  135  1  0.60951000  0.94605200  0.27586400  1
  H  136  1  0.55396300  0.83093300  0.35696300  1
  H  139  1  0.66909200  0.87376600  0.37182000  1
  H  140  1  0.69366400  0.85175800  0.40269000  1
  H  141  1  0.69357600  0.84773700  0.25474600  1
  H  142  1  0.67076100  0.80086100  0.28540800  1
  H  149  1  0.15574200  0.43403600  0.63421200  1
  H  150  1  0.04141700  0.37382200  0.71583000  1
  H  157  1  0.32491600  0.38116100  0.60914400  1
  H  158  1  0.26547700  0.43689000  0.69022400  1
  H  161  1  0.19323800  0.32176300  0.70509400  1
  H  162  1  0.14669200  0.29717300  0.73598700  1
  H  163  1  0.14253700  0.29725600  0.58805600  1
  H  164  1  0.11852300  0.32011500  0.61872100  1
  H  171  1  0.13340100  0.61865000  0.99142900  1
  H  172  1  0.99909200  0.63338100  0.00938300  1
  H  173  1  0.85771900  0.37593000  0.99541800  1
  H  174  1  0.99343100  0.36120800  0.00433000  1
  H  175  1  0.04527800  0.45393700  0.01446300  1
  H  188  1  0.47375100  0.85738100  0.32479800  1
  H  189  1  0.58085300  0.04273400  0.35258800  1
  H  190  1  0.62278200  0.99170600  0.34279200  1
  H  191  1  0.50665300  0.13302800  0.32874900  1
  H  192  1  0.35622800  0.99731500  0.33769300  1
  H  193  1  0.39713800  0.94546400  0.34783200  1
  H  206  1  0.37208300  0.51694400  0.65794100  1
  H  207  1  0.45032700  0.40991200  0.68603300  1
  H  208  1  0.35732900  0.36795000  0.67621300  1
  H  209  1  0.61477400  0.48405500  0.66205100  1
  H  210  1  0.62953000  0.63450400  0.67103800  1
  H  211  1  0.53676600  0.59359800  0.68113600  1
  H  224  1  0.51230000  0.37651600  0.33197000  1
  H  225  1  0.40536800  0.45533600  0.30538000  1
  H  226  1  0.36329100  0.36237200  0.31517600  1
  H  227  1  0.48001800  0.61987500  0.32808200  1
  H  228  1  0.63031900  0.63403900  0.32018300  1
  H  229  1  0.58924800  0.54128500  0.31009300  1
  H  242  1  0.61426300  0.13807300  0.99864400  1
  H  243  1  0.53543200  0.95235600  0.97194600  1
  H  244  1  0.62839200  0.00323900  0.98172800  1
  H  245  1  0.37084900  0.86239800  0.99468000  1
  H  246  1  0.35672000  0.99855200  0.98690400  1
  H  247  1  0.44945400  0.05023600  0.97678400  1
  H  254  1  0.85263800  0.47853200  0.66524700  1
  H  255  1  0.03846300  0.58542000  0.63883100  1
  H  256  1  0.12830500  0.51067900  0.66140200  1
  H  269  1  0.72072500  0.00156000  0.05805800  1
  H  270  1  0.75233700  0.08803400  0.17376400  1
  H  271  1  0.76567200  0.13867600  0.11999000  1
  H  272  1  0.71641500  0.99477500  0.26622500  1
  H  273  1  0.62637600  0.85729700  0.20415000  1
  H  274  1  0.66368000  0.90812200  0.15046800  1
  H  287  1  0.26924000  0.26992600  0.39140000  1
  H  288  1  0.32413900  0.23846000  0.50712700  1
  H  289  1  0.36146600  0.22513700  0.45339100  1
  H  290  1  0.26655800  0.27416300  0.59956500  1
  H  291  1  0.21958000  0.36454100  0.53746000  1
  H  292  1  0.23309000  0.32723000  0.48379700  1
  H  299  1  0.85220700  0.62946900  0.78669300  1
  H  300  1  0.99610300  0.72420700  0.93294000  1
  H  301  1  0.13344900  0.77119800  0.87083100  1
  H  302  1  0.08265900  0.75775400  0.81717200  1
  H  315  1  0.25770500  0.99356100  0.05814100  1
  H  316  1  0.23027200  0.90810500  0.17391500  1
  H  317  1  0.21803500  0.85774900  0.12020300  1
  H  318  1  0.26271600  0.00114400  0.26622500  1
  H  319  1  0.35664400  0.13737000  0.20395500  1
  H  320  1  0.31830700  0.08678700  0.15032700  1
  H  333  1  0.72424600  0.73294400  0.39150000  1
  H  334  1  0.66641400  0.76062200  0.50728100  1
  H  335  1  0.62828100  0.77287800  0.45353700  1
  H  336  1  0.72676100  0.72794800  0.59956700  1
  H  337  1  0.76926500  0.63413900  0.53730800  1
  H  338  1  0.75704200  0.67249100  0.48368600  1
  H  345  1  0.99729000  0.26649400  0.72485800  1
  H  346  1  0.08276500  0.32451400  0.84062500  1
  H  347  1  0.13310700  0.36263600  0.78689600  1
  H  348  1  0.85355100  0.22170500  0.87067000  1
  C  1  1  0.91221500  0.29531000  0.95376800  1
  C  3  1  0.90927100  0.61357300  0.70314300  1
  C  5  1  0.91960900  0.35818100  0.99956300  1
  C  6  1  0.97461300  0.38268000  0.00595400  1
  C  7  1  0.98133100  0.46901000  0.01104700  1
  C  9  1  0.98768300  0.55701300  0.01473300  1
  C  11  1  0.98044300  0.42485800  0.64606400  1
  C  12  1  0.97474700  0.50699600  0.64612900  1
  C  13  1  0.96864900  0.58718500  0.64854500  1
  C  14  1  0.91419300  0.55747300  0.65686500  1
  C  20  1  0.97576200  0.71589500  0.81346600  1
  C  21  1  0.92076400  0.68024800  0.81595700  1
  C  22  1  0.91497600  0.67298900  0.75001500  1
  C  23  1  0.96932300  0.71086400  0.74875600  1
  C  25  1  0.91585800  0.23966000  0.90750700  1
  C  26  1  0.92175100  0.23781300  0.84159500  1
  C  27  1  0.97657400  0.25632800  0.84422300  1
  C  28  1  0.96989200  0.25485000  0.90890200  1
  C  31  1  0.88982200  0.24432100  0.93864700  1
  C  32  1  0.89168100  0.30604500  0.98495900  1
  C  33  1  0.88783500  0.58302300  0.67176800  1
  C  34  1  0.88843700  0.64334100  0.71864800  1
  C  35  1  0.89675800  0.39069000  0.00119200  1
  C  36  1  0.89115600  0.50208100  0.65781600  1
  C  37  1  0.89087800  0.65842700  0.78435400  1
  C  39  1  0.89190600  0.23039500  0.87312600  1
  C  43  1  0.77801700  0.17097900  0.00490800  1
  C  44  1  0.72650200  0.14867400  0.98999100  1
  C  45  1  0.68359100  0.10300900  0.00499700  1
  C  46  1  0.69262900  0.08157100  0.03639700  1
  C  47  1  0.74320800  0.10238400  0.05194300  1
  C  48  1  0.78699200  0.14736600  0.03600500  1
  C  51  1  0.82091200  0.21260700  0.98540300  1
  C  52  1  0.84381800  0.20186600  0.95467200  1
  C  53  1  0.84493800  0.26446600  0.99994100  1
  C  60  1  0.38144300  0.21274700  0.33828200  1
  C  61  1  0.41067800  0.26427700  0.32339100  1
  C  62  1  0.40787400  0.30715900  0.33840400  1
  C  63  1  0.37737100  0.29808300  0.36979300  1
  C  64  1  0.34760500  0.24749000  0.38532000  1
  C  65  1  0.34882900  0.20372600  0.36937100  1
  C  68  1  0.38019400  0.16986800  0.31875600  1
  C  69  1  0.34658200  0.14701000  0.28800200  1
  C  70  1  0.34303600  0.10101700  0.27196500  1
  C  71  1  0.37163000  0.07861500  0.28708100  1
  C  72  1  0.40287100  0.09910900  0.31828900  1
  C  73  1  0.40798200  0.14580700  0.33333333  1
  C  82  1  0.81979200  0.60937500  0.67165200  1
  C  83  1  0.84208600  0.58012400  0.65678700  1
  C  84  1  0.84342600  0.64206700  0.70270000  1
  C  86  1  0.77814500  0.61057700  0.65212300  1
  C  87  1  0.78888500  0.64416500  0.62135300  1
  C  88  1  0.74642200  0.64768000  0.60530700  1
  C  89  1  0.69543100  0.61909000  0.62042800  1
  C  90  1  0.68469600  0.58786700  0.65164400  1
  C  91  1  0.72629000  0.58277300  0.66666667  1
  C  99  1  0.20782600  0.82557700  0.00521900  1
  C  100  1  0.25965500  0.84983200  0.99060900  1
  C  101  1  0.30120600  0.89652800  0.00567500  1
  C  102  1  0.29043700  0.91680800  0.03699100  1
  C  103  1  0.23948000  0.89413500  0.05219900  1
  C  104  1  0.19707400  0.84815800  0.03612700  1
  C  107  1  0.16622400  0.78267700  0.98570100  1
  C  108  1  0.14233200  0.79166400  0.95476400  1
  C  109  1  0.09735100  0.74783900  0.93884400  1
  C  110  1  0.07682300  0.69722500  0.95428100  1
  C  111  1  0.09850000  0.68820400  0.98555900  1
  C  112  1  0.14421100  0.73112100  0.00049800  1
  C  121  1  0.60631100  0.78296000  0.33851800  1
  C  122  1  0.57876500  0.73114000  0.32389300  1
  C  123  1  0.58382400  0.68955800  0.33899300  1
  C  124  1  0.61484200  0.70031200  0.37032000  1
  C  125  1  0.64314400  0.75126800  0.38552800  1
  C  126  1  0.63961400  0.79369200  0.36944400  1
  C  129  1  0.60501000  0.82457400  0.31902100  1
  C  130  1  0.63787500  0.84850600  0.28808300  1
  C  131  1  0.63901800  0.89349100  0.27218900  1
  C  132  1  0.60892900  0.91399800  0.28765100  1
  C  133  1  0.57827000  0.89231600  0.31894500  1
  C  134  1  0.57549300  0.84659400  0.33385600  1
  C  143  1  0.16513800  0.38452800  0.67183800  1
  C  144  1  0.14084600  0.41207400  0.65724300  1
  C  145  1  0.09419400  0.40696200  0.67236500  1
  C  146  1  0.07396000  0.37592400  0.70368600  1
  C  147  1  0.09666200  0.34765400  0.71887500  1
  C  148  1  0.14261900  0.35121800  0.70276800  1
  C  151  1  0.20803500  0.38583100  0.65230600  1
  C  152  1  0.19904900  0.35294100  0.62137700  1
  C  153  1  0.24286200  0.35174800  0.60547700  1
  C  154  1  0.29347300  0.38180600  0.62092800  1
  C  155  1  0.30249800  0.41251600  0.65220100  1
  C  156  1  0.25957900  0.41531000  0.66713900  1
  C  165  1  0.00533000  0.43741200  0.01165500  1
  C  166  1  0.01143200  0.52538600  0.01130100  1
  C  167  1  0.01791700  0.61185000  0.00925300  1
  C  168  1  0.07223000  0.63635200  0.00053600  1
  C  169  1  0.09504800  0.60381800  0.99923100  1
  C  176  1  0.42700900  0.07111000  0.33288300  1
  C  177  1  0.39652100  0.01611000  0.33926100  1
  C  178  1  0.42054400  0.98540400  0.34498700  1
  C  179  1  0.47613900  0.00941700  0.34437100  1
  C  181  1  0.48237500  0.09398300  0.33451600  1
  C  182  1  0.50244300  0.97933900  0.34463300  1
  C  183  1  0.55781600  0.00309900  0.34807800  1
  C  184  1  0.58242400  0.97286500  0.34260600  1
  C  185  1  0.55264800  0.91853100  0.33393200  1
  C  186  1  0.49730500  0.89575800  0.33254300  1
  C  194  1  0.63257500  0.56372600  0.66625800  1
  C  195  1  0.60803300  0.59420500  0.67258400  1
  C  196  1  0.55329900  0.57019200  0.67827500  1
  C  197  1  0.52172100  0.51460000  0.67766400  1
  C  199  1  0.60007400  0.50836200  0.66790900  1
  C  200  1  0.46533700  0.48828200  0.67787200  1
  C  201  1  0.43373200  0.43291900  0.68138000  1
  C  202  1  0.37889200  0.40830400  0.67590800  1
  C  203  1  0.35433600  0.43805300  0.66717700  1
  C  204  1  0.38690600  0.49340300  0.66571800  1
  C  212  1  0.55964400  0.63738700  0.32443400  1
  C  213  1  0.59003900  0.61267800  0.31840500  1
  C  214  1  0.56591000  0.55794400  0.31263800  1
  C  215  1  0.51029300  0.52650100  0.31297600  1
  C  217  1  0.50428800  0.60505700  0.32245000  1
  C  218  1  0.48378900  0.47009100  0.31278200  1
  C  219  1  0.42836200  0.43862900  0.30963900  1
  C  220  1  0.40365300  0.38377300  0.31509700  1
  C  221  1  0.43335000  0.35902100  0.32344700  1
  C  222  1  0.48873900  0.39145600  0.32450100  1
  C  230  1  0.35337900  0.92453200  0.99111800  1
  C  231  1  0.37806600  0.97962500  0.98505500  1
  C  232  1  0.43281100  0.01024500  0.97934900  1
  C  233  1  0.46425700  0.98607000  0.97964400  1
  C  235  1  0.38573100  0.90152800  0.98916100  1
  C  236  1  0.52066200  0.01601100  0.97937000  1
  C  237  1  0.55213700  0.99205800  0.97620300  1
  C  238  1  0.60699200  0.02220000  0.98165300  1
  C  239  1  0.63174000  0.07664400  0.99002300  1
  C  240  1  0.59931200  0.09960800  0.99108000  1
  C  248  1  0.06612700  0.43107900  0.65783200  1
  C  249  1  0.01103400  0.40070700  0.65178200  1
  C  250  1  0.00464400  0.48047900  0.64638600  1
  C  252  1  0.08916800  0.48644500  0.65589000  1
  C  253  1  0.99875200  0.56244000  0.64305400  1
  C  257  1  0.66876600  0.92029200  0.24090000  1
  C  258  1  0.65479400  0.89616500  0.20655000  1
  C  259  1  0.67657500  0.92617500  0.17499300  1
  C  260  1  0.71162500  0.98128800  0.17753300  1
  C  262  1  0.70611800  0.97479600  0.24223200  1
  C  263  1  0.72842400  0.01507900  0.14677100  1
  C  264  1  0.74771900  0.07006600  0.14926300  1
  C  265  1  0.75576000  0.09994700  0.11766300  1
  C  266  1  0.74622300  0.07582800  0.08333700  1
  C  267  1  0.72975400  0.02148700  0.08206100  1
  C  275  1  0.23986500  0.32191000  0.57422900  1
  C  276  1  0.22975000  0.33592100  0.53987600  1
  C  277  1  0.23794100  0.31410300  0.50831900  1
  C  278  1  0.25796500  0.27901900  0.51086200  1
  C  280  1  0.25690200  0.28447700  0.57556600  1
  C  281  1  0.27500100  0.26224200  0.48011300  1
  C  282  1  0.31065500  0.24290300  0.48263200  1
  C  283  1  0.33251800  0.23486100  0.45104000  1
  C  284  1  0.31799300  0.24442500  0.41670100  1
  C  285  1  0.28011600  0.26089100  0.41541200  1
  C  293  1  0.07051300  0.75083600  0.90759700  1
  C  294  1  0.09464900  0.76098900  0.87324400  1
  C  295  1  0.06463700  0.75279500  0.84168700  1
  C  296  1  0.00953500  0.73279800  0.84423300  1
  C  297  1  0.01602800  0.73374000  0.90892600  1
  C  303  1  0.31240700  0.07504400  0.24078700  1
  C  304  1  0.32709000  0.09896300  0.20640100  1
  C  305  1  0.30466100  0.06910500  0.17487700  1
  C  306  1  0.26833400  0.01429000  0.17752000  1
  C  308  1  0.27361600  0.02098100  0.24218400  1
  C  309  1  0.25135900  0.98037000  0.14685500  1
  C  310  1  0.23359800  0.92568900  0.14941900  1
  C  311  1  0.22626600  0.89597200  0.11783300  1
  C  312  1  0.23479600  0.91988000  0.08348600  1
  C  313  1  0.24933800  0.97374100  0.08216700  1
  C  321  1  0.75106200  0.67831500  0.57413100  1
  C  322  1  0.76033300  0.66363800  0.53975700  1
  C  323  1  0.75288800  0.68605500  0.50823500  1
  C  324  1  0.73440200  0.72238500  0.51087300  1
  C  326  1  0.73585300  0.71714800  0.57554700  1
  C  327  1  0.71741000  0.73931900  0.48020800  1
  C  328  1  0.68049700  0.75708500  0.48277200  1
  C  329  1  0.65815100  0.76446600  0.45118900  1
  C  330  1  0.67352000  0.75592600  0.41683800  1
  C  331  1  0.71279500  0.74131900  0.41552500  1
  C  340  1  0.01049900  0.27336100  0.81356100  1
  C  341  1  0.06517700  0.31025800  0.81613100  1
  C  342  1  0.09489900  0.33261200  0.78454100  1
  C  343  1  0.07099300  0.31726100  0.75018900  1
  C  344  1  0.01711900  0.27795500  0.74888300  1
  N  8  1  0.92798000  0.44363500  0.00600000  1
  N  15  1  0.92187700  0.47976200  0.65322500  1
  N  19  1  0.98816300  0.72454000  0.87791600  1
  N  29  1  0.98936900  0.25891800  0.77989700  1
  N  55  1  0.83658600  0.16579900  0.04957300  1
  N  56  1  0.82372600  0.15181200  0.94153900  1
  N  76  1  0.31765000  0.15411500  0.38290400  1
  N  77  1  0.31665000  0.16713200  0.27486400  1
  N  94  1  0.82497900  0.67324800  0.71621100  1
  N  95  1  0.83893100  0.67409000  0.60819800  1
  N  115  1  0.14706400  0.82776900  0.04940800  1
  N  116  1  0.16045200  0.84129900  0.94137700  1
  N  137  1  0.66921400  0.84369200  0.38275300  1
  N  138  1  0.66939600  0.83040600  0.27467500  1
  N  159  1  0.16304700  0.32162800  0.71604600  1
  N  160  1  0.14941100  0.32143900  0.60798500  1
  N  170  1  0.06419000  0.55080400  0.00383500  1
  N  180  1  0.50411300  0.06277100  0.33932300  1
  N  187  1  0.47511700  0.92658600  0.33715600  1
  N  198  1  0.54710900  0.48663200  0.67263500  1
  N  205  1  0.43992500  0.51560600  0.67034100  1
  N  216  1  0.48245400  0.55207900  0.31774000  1
  N  223  1  0.51104600  0.44449300  0.31991800  1
  N  234  1  0.43869600  0.93265200  0.98438100  1
  N  241  1  0.54627200  0.06885500  0.98653900  1
  N  251  1  0.05806500  0.50831500  0.65112600  1
  N  261  1  0.72469400  0.00267100  0.21121400  1
  N  268  1  0.72067700  0.99371900  0.11310700  1
  N  279  1  0.26620500  0.26590100  0.54455000  1
  N  286  1  0.26140500  0.26997700  0.44644400  1
  N  298  1  0.99710300  0.72949900  0.77979900  1
  N  307  1  0.25452100  0.99312300  0.21121400  1
  N  314  1  0.25805300  0.00148800  0.11318300  1
  N  325  1  0.72703200  0.73618400  0.54456900  1
  N  332  1  0.73182500  0.73259800  0.44654100  1
  N  339  1  0.99774000  0.26368500  0.87791900  1
