# generated using pymatgen
data_CdH12C24O5
_symmetry_space_group_name_H-M   'P 1'
_cell_length_a   12.86957000
_cell_length_b   13.65028000
_cell_length_c   22.97205460
_cell_angle_alpha   106.37014554
_cell_angle_beta   104.06130918
_cell_angle_gamma   93.49725000
_symmetry_Int_Tables_number   1
_chemical_formula_structural   CdH12C24O5
_chemical_formula_sum   'Cd4 H48 C96 O20'
_cell_volume   3719.43549102
_cell_formula_units_Z   4
loop_
 _symmetry_equiv_pos_site_id
 _symmetry_equiv_pos_as_xyz
  1  'x, y, z'
loop_
 _atom_site_type_symbol
 _atom_site_label
 _atom_site_symmetry_multiplicity
 _atom_site_fract_x
 _atom_site_fract_y
 _atom_site_fract_z
 _atom_site_occupancy
  Cd  Cd0  1  0.85389000  0.48520000  0.99392000  1
  Cd  Cd1  1  0.78394000  0.69934000  0.95648000  1
  Cd  Cd2  1  0.84085000  0.26722000  0.03747000  1
  Cd  Cd3  1  0.82576000  0.94038000  0.04269000  1
  H  H4  1  0.85019000  0.78502000  0.79592000  1
  H  H5  1  0.67953000  0.02955000  0.87106000  1
  H  H6  1  0.82635000  0.90782000  0.36258000  1
  H  H7  1  0.54142000  0.36663000  0.65065000  1
  H  H8  1  0.18403000  0.99406000  0.24738000  1
  H  H9  1  0.07626000  0.17210000  0.41746000  1
  H  H10  1  0.93376000  0.07664000  0.63424000  1
  H  H11  1  0.81570000  0.47923000  0.24580000  1
  H  H12  1  0.09155000  0.38834000  0.89012000  1
  H  H13  1  0.51572000  0.10629000  0.89996000  1
  H  H14  1  0.60276000  0.35079000  0.83062000  1
  H  H15  1  0.66369000  0.87807000  0.50885000  1
  H  H16  1  0.01960000  0.61035000  0.15671000  1
  H  H17  1  0.84408000  0.26239000  0.71849000  1
  H  H18  1  0.46635000  0.83748000  0.22679000  1
  H  H19  1  0.26450000  0.95456000  0.34744000  1
  H  H20  1  0.39182000  0.01217000  0.79371000  1
  H  H21  1  0.77806000  0.66564000  0.16316000  1
  H  H22  1  0.61130000  0.90282000  0.10868000  1
  H  H23  1  0.98914000  0.86299000  0.28989000  1
  H  H24  1  0.08427000  0.24429000  0.23271000  1
  H  H25  1  0.88602000  0.10235000  0.84367000  1
  H  H26  1  0.59002000  0.97266000  0.21702000  1
  H  H27  1  0.15048000  0.32180000  0.79217000  1
  H  H28  1  0.80130000  0.01509000  0.15479000  1
  H  H29  1  0.13085000  0.18491000  0.32787000  1
  H  H30  1  0.42505000  0.00716000  0.43896000  1
  H  H31  1  0.81690000  0.82914000  0.69545000  1
  H  H32  1  0.49197000  0.00266000  0.65425000  1
  H  H33  1  0.13743000  0.64712000  0.40998000  1
  H  H34  1  0.14524000  0.10394000  0.50560000  1
  H  H35  1  0.87276000  0.39368000  0.82267000  1
  H  H36  1  0.31619000  0.71162000  0.18866000  1
  H  H37  1  0.10945000  0.74461000  0.25829000  1
  H  H38  1  0.70465000  0.14138000  0.71412000  1
  H  H39  1  0.15673000  0.64720000  0.09446000  1
  H  H40  1  0.01156000  0.99284000  0.54925000  1
  H  H41  1  0.02818000  0.93128000  0.15277000  1
  H  H42  1  0.63888000  0.06998000  0.77016000  1
  H  H43  1  0.93632000  0.03846000  0.74314000  1
  H  H44  1  0.70436000  0.82783000  0.60578000  1
  H  H45  1  0.60504000  0.31878000  0.56124000  1
  H  H46  1  0.25257000  0.16946000  0.76340000  1
  H  H47  1  0.85248000  0.95011000  0.24537000  1
  H  H48  1  0.57324000  0.50078000  0.75527000  1
  H  H49  1  0.90572000  0.61396000  0.34880000  1
  H  H50  1  0.75734000  0.73495000  0.27159000  1
  H  H51  1  0.48310000  0.25649000  0.72407000  1
  C  C52  1  0.91133000  0.53720000  0.19480000  1
  C  C53  1  0.70765000  0.98525000  0.83198000  1
  C  C54  1  0.78388000  0.31358000  0.72625000  1
  C  C55  1  0.26111000  0.85734000  0.22455000  1
  C  C56  1  0.55175000  0.91735000  0.32350000  1
  C  C57  1  0.09148000  0.27409000  0.80300000  1
  C  C58  1  0.06579000  0.03188000  0.59585000  1
  C  C59  1  0.45871000  0.87932000  0.27302000  1
  C  C60  1  0.12903000  0.72852000  0.41925000  1
  C  C61  1  0.70040000  0.90835000  0.60871000  1
  C  C62  1  0.34458000  0.94585000  0.34048000  1
  C  C63  1  0.92989000  0.61350000  0.30651000  1
  C  C64  1  0.10966000  0.94340000  0.44930000  1
  C  C65  1  0.09086000  0.88294000  0.16059000  1
  C  C66  1  0.69664000  0.78047000  0.12944000  1
  C  C67  1  0.95129000  0.28934000  0.93275000  1
  C  C68  1  0.24737000  0.08093000  0.66909000  1
  C  C69  1  0.17827000  0.91808000  0.21410000  1
  C  C70  1  0.63255000  0.99532000  0.43918000  1
  C  C71  1  0.62655000  0.06171000  0.49728000  1
  C  C72  1  0.94209000  0.15066000  0.83145000  1
  C  C73  1  0.64327000  0.86698000  0.14477000  1
  C  C74  1  0.11026000  0.05079000  0.45848000  1
  C  C75  1  0.18194000  0.79464000  0.48321000  1
  C  C76  1  0.63080000  0.90528000  0.20513000  1
  C  C77  1  0.91843000  0.16465000  0.12837000  1
  C  C78  1  0.50725000  0.13893000  0.86124000  1
  C  C79  1  0.35529000  0.89538000  0.28005000  1
  C  C80  1  0.03438000  0.17992000  0.23609000  1
  C  C81  1  0.43044000  0.12701000  0.75121000  1
  C  C82  1  0.20062000  0.13282000  0.71598000  1
  C  C83  1  0.99663000  0.06149000  0.29291000  1
  C  C84  1  0.80440000  0.84719000  0.78929000  1
  C  C85  1  0.99398000  0.61260000  0.19873000  1
  C  C86  1  0.63171000  0.44827000  0.74610000  1
  C  C87  1  0.40663000  0.01134000  0.64284000  1
  C  C88  1  0.43522000  0.97800000  0.39180000  1
  C  C89  1  0.04401000  0.68802000  0.25591000  1
  C  C90  1  0.73716000  0.73280000  0.17533000  1
  C  C91  1  0.98742000  0.74277000  0.06184000  1
  C  C92  1  0.25331000  0.75979000  0.18038000  1
  C  C93  1  0.72379000  0.45403000  0.79523000  1
  C  C94  1  0.55676000  0.27657000  0.82209000  1
  C  C95  1  0.71331000  0.74210000  0.06565000  1
  C  C96  1  0.02130000  0.07945000  0.64406000  1
  C  C97  1  0.04711000  0.17543000  0.76047000  1
  C  C98  1  0.74589000  0.92099000  0.36746000  1
  C  C99  1  0.22548000  0.96744000  0.56043000  1
  C  C100  1  0.05950000  0.14686000  0.28929000  1
  C  C101  1  0.54083000  0.96830000  0.38458000  1
  C  C102  1  0.73688000  0.53032000  0.85775000  1
  C  C103  1  0.86281000  0.45140000  0.13502000  1
  C  C104  1  0.06985000  0.76404000  0.37353000  1
  C  C105  1  0.68648000  0.00840000  0.77550000  1
  C  C106  1  0.78436000  0.87146000  0.73316000  1
  C  C107  1  0.67215000  0.85843000  0.25167000  1
  C  C108  1  0.94395000  0.12971000  0.18532000  1
  C  C109  1  0.70891000  0.98193000  0.66737000  1
  C  C110  1  0.76689000  0.90465000  0.83919000  1
  C  C111  1  0.16459000  0.72347000  0.12789000  1
  C  C112  1  0.97030000  0.11525000  0.77498000  1
  C  C113  1  0.06392000  0.87431000  0.38652000  1
  C  C114  1  0.72578000  0.77206000  0.23607000  1
  C  C115  1  0.67881000  0.93672000  0.55427000  1
  C  C116  1  0.68150000  0.11552000  0.61488000  1
  C  C117  1  0.16952000  0.90595000  0.49791000  1
  C  C118  1  0.48928000  0.22351000  0.76246000  1
  C  C119  1  0.87778000  0.04852000  0.19045000  1
  C  C120  1  0.65911000  0.90018000  0.31585000  1
  C  C121  1  0.66555000  0.22150000  0.61665000  1
  C  C122  1  0.17942000  0.03008000  0.60637000  1
  C  C123  1  0.58409000  0.16281000  0.50017000  1
  C  C124  1  0.90463000  0.01341000  0.24269000  1
  C  C125  1  0.80085000  0.38768000  0.78470000  1
  C  C126  1  0.34512000  0.96483000  0.57730000  1
  C  C127  1  0.62106000  0.24161000  0.56167000  1
  C  C128  1  0.05953000  0.31125000  0.85805000  1
  C  C129  1  0.08263000  0.78499000  0.11741000  1
  C  C130  1  0.87928000  0.53857000  0.24923000  1
  C  C131  1  0.72566000  0.95294000  0.72549000  1
  C  C132  1  0.68945000  0.30407000  0.67752000  1
  C  C133  1  0.02856000  0.02182000  0.34705000  1
  C  C134  1  0.66889000  0.03996000  0.55545000  1
  C  C135  1  0.02188000  0.91535000  0.33747000  1
  C  C136  1  0.73875000  0.96052000  0.43228000  1
  C  C137  1  0.65314000  0.28604000  0.93302000  1
  C  C138  1  0.98575000  0.24917000  0.87335000  1
  C  C139  1  0.01336000  0.68901000  0.31080000  1
  C  C140  1  0.61476000  0.37388000  0.68800000  1
  C  C141  1  0.69930000  0.08463000  0.66918000  1
  C  C142  1  0.56858000  0.23397000  0.87169000  1
  C  C143  1  0.08851000  0.13113000  0.70539000  1
  C  C144  1  0.78971000  0.87902000  0.89934000  1
  C  C145  1  0.36206000  0.07066000  0.68615000  1
  C  C146  1  0.07246000  0.08927000  0.40894000  1
  C  C147  1  0.43831000  0.08629000  0.80169000  1
  O  O148  1  0.82388000  0.53815000  0.90283000  1
  O  O149  1  0.67539000  0.23342000  0.97130000  1
  O  O150  1  0.70257000  0.80484000  0.03109000  1
  O  O151  1  0.96472000  0.24836000  0.12867000  1
  O  O152  1  0.97123000  0.38678000  0.95958000  1
  O  O153  1  0.96953000  0.64687000  0.03409000  1
  O  O154  1  0.90432000  0.22365000  0.95145000  1
  O  O155  1  0.82034000  0.97096000  0.47704000  1
  O  O156  1  0.79453000  0.38052000  0.13338000  1
  O  O157  1  0.52848000  0.18504000  0.45452000  1
  O  O158  1  0.22398000  0.75729000  0.52559000  1
  O  O159  1  0.92599000  0.80588000  0.04247000  1
  O  O160  1  0.84414000  0.10838000  0.07758000  1
  O  O161  1  0.76626000  0.94268000  0.94591000  1
  O  O162  1  0.66640000  0.59022000  0.86540000  1
  O  O163  1  0.73825000  0.65335000  0.04567000  1
  O  O164  1  0.69744000  0.37674000  0.94035000  1
  O  O165  1  0.39149000  0.93838000  0.53459000  1
  O  O166  1  0.90181000  0.44872000  0.08680000  1
  O  O167  1  0.83025000  0.79662000  0.90053000  1
