# generated using pymatgen
data_CuH4C8(N2O)2
_symmetry_space_group_name_H-M   'P 1'
_cell_length_a   7.73325000
_cell_length_b   8.68733000
_cell_length_c   12.20962066
_cell_angle_alpha   110.44788878
_cell_angle_beta   108.31049184
_cell_angle_gamma   90.56588000
_symmetry_Int_Tables_number   1
_chemical_formula_structural   CuH4C8(N2O)2
_chemical_formula_sum   'Cu2 H8 C16 N8 O4'
_cell_volume   723.03084745
_cell_formula_units_Z   2
loop_
 _symmetry_equiv_pos_site_id
 _symmetry_equiv_pos_as_xyz
  1  'x, y, z'
loop_
 _atom_site_type_symbol
 _atom_site_label
 _atom_site_symmetry_multiplicity
 _atom_site_fract_x
 _atom_site_fract_y
 _atom_site_fract_z
 _atom_site_occupancy
  Cu  Cu1  1  0.73757000  0.03487000  0.99859000  1.0
  Cu  Cu2  1  0.25993000  0.02934000  0.99987000  1.0
  H  H1  1  0.44852000  0.02462000  0.44653000  1.0
  H  H2  1  0.55963000  0.05471000  0.67056000  1.0
  H  H3  1  0.55273000  0.57884000  0.55321000  1.0
  H  H4  1  0.44313000  0.38262000  0.33078000  1.0
  H  H5  1  0.99510000  0.57641000  0.54917000  1.0
  H  H6  1  0.88620000  0.38104000  0.32635000  1.0
  H  H7  1  0.00498000  0.02539000  0.44786000  1.0
  H  H8  1  0.11489000  0.05490000  0.67171000  1.0
  C  C1  1  0.59358000  0.03134000  0.49671000  1.0
  C  C2  1  0.65522000  0.04887000  0.62086000  1.0
  C  C3  1  0.40755000  0.53469000  0.50274000  1.0
  C  C4  1  0.34653000  0.42658000  0.37916000  1.0
  C  C5  1  0.09180000  0.53352000  0.50044000  1.0
  C  C6  1  0.03122000  0.42582000  0.37681000  1.0
  C  C7  1  0.90884000  0.03176000  0.49739000  1.0
  C  C8  1  0.97004000  0.04904000  0.62152000  1.0
  C  C9  1  0.72030000  0.02285000  0.43418000  1.0
  C  C10  1  0.84359000  0.05816000  0.68403000  1.0
  C  C11  1  0.90778000  0.07035000  0.81570000  1.0
  C  C12  1  0.65544000  0.01017000  0.30500000  1.0
  C  C13  1  0.28039000  0.58917000  0.56434000  1.0
  C  C14  1  0.15800000  0.37193000  0.31507000  1.0
  C  C15  1  0.09257000  0.25238000  0.18337000  1.0
  C  C16  1  0.34448000  0.70636000  0.69308000  1.0
  N  N1  1  0.65402000  0.00614000  0.13030000  1.0
  N  N2  1  0.76690000  0.01164000  0.23899000  1.0
  N  N3  1  0.34447000  0.87352000  0.86765000  1.0
  N  N4  1  0.23255000  0.76886000  0.75917000  1.0
  N  N5  1  0.51923000  0.87533000  0.86768000  1.0
  N  N6  1  0.52264000  0.77148000  0.75941000  1.0
  N  N7  1  0.47913000  0.00166000  0.13003000  1.0
  N  N8  1  0.47673000  0.00396000  0.23844000  1.0
  O  O1  1  0.07999000  0.07138000  0.86548000  1.0
  O  O2  1  0.91886000  0.21251000  0.13112000  1.0
  O  O3  1  0.21719000  0.20194000  0.13631000  1.0
  O  O4  1  0.78315000  0.07795000  0.86483000  1.0
