# generated using pymatgen
data_Mg3H48C78(NO6)2
_symmetry_space_group_name_H-M   'P 1'
_cell_length_a   8.42055000
_cell_length_b   12.82357000
_cell_length_c   20.93181000
_cell_angle_alpha   73.68538000
_cell_angle_beta   84.46681000
_cell_angle_gamma   77.68131000
_symmetry_Int_Tables_number   1
_chemical_formula_structural   Mg3H48C78(NO6)2
_chemical_formula_sum   'Mg3 H48 C78 N2 O12'
_cell_volume   2117.68661008
_cell_formula_units_Z   1
loop_
 _symmetry_equiv_pos_site_id
 _symmetry_equiv_pos_as_xyz
  1  'x, y, z'
loop_
 _atom_site_type_symbol
 _atom_site_label
 _atom_site_symmetry_multiplicity
 _atom_site_fract_x
 _atom_site_fract_y
 _atom_site_fract_z
 _atom_site_occupancy
  Mg  Mg0  1  0.40432000  0.84869000  0.99981000  1
  Mg  Mg1  1  0.59568000  0.15131000  0.00019000  1
  Mg  Mg2  1  0.00000000  0.00000000  0.00000000  1
  H  H3  1  0.58858000  0.05877000  0.18387000  1
  H  H4  1  0.35162000  0.73406000  0.30959000  1
  H  H5  1  0.34300000  0.79658000  0.18642000  1
  H  H6  1  0.16456000  0.69567000  0.74071000  1
  H  H7  1  0.92711000  0.54163000  0.74801000  1
  H  H8  1  0.61960000  0.98722000  0.30567000  1
  H  H9  1  0.03235000  0.78922000  0.62813000  1
  H  H10  1  0.64495000  0.80260000  0.77713000  1
  H  H11  1  0.14927000  0.14569000  0.85721000  1
  H  H12  1  0.47223000  0.74237000  0.71090000  1
  H  H13  1  0.45024000  0.40621000  0.77913000  1
  H  H14  1  0.31730000  0.71609000  0.83128000  1
  H  H15  1  0.93237000  0.98041000  0.86212000  1
  H  H16  1  0.63539000  0.52194000  0.70988000  1
  H  H17  1  0.07825000  0.55920000  0.63609000  1
  H  H18  1  0.32226000  0.25917000  0.77762000  1
  H  H19  1  0.26210000  0.67773000  0.56732000  1
  H  H20  1  0.57175000  0.56472000  0.51090000  1
  H  H21  1  0.77640000  0.95534000  0.77513000  1
  H  H22  1  0.75631000  0.42820000  0.83156000  1
  H  H23  1  0.52737000  0.89536000  0.52900000  1
  H  H24  1  0.86005000  0.72705000  0.56190000  1
  H  H25  1  0.49033000  0.97023000  0.40732000  1
  H  H26  1  0.53931000  0.63835000  0.38915000  1
  H  H27  1  0.41142000  0.94123000  0.81613000  1
  H  H28  1  0.64838000  0.26595000  0.69042000  1
  H  H29  1  0.65701000  0.20342000  0.81358000  1
  H  H30  1  0.83545000  0.30434000  0.25930000  1
  H  H31  1  0.07289000  0.45837000  0.25200000  1
  H  H32  1  0.38040000  0.01278000  0.69434000  1
  H  H33  1  0.96766000  0.21079000  0.37187000  1
  H  H34  1  0.35505000  0.19741000  0.22287000  1
  H  H35  1  0.85074000  0.85431000  0.14279000  1
  H  H36  1  0.52777000  0.25763000  0.28911000  1
  H  H37  1  0.54976000  0.59379000  0.22087000  1
  H  H38  1  0.68271000  0.28391000  0.16872000  1
  H  H39  1  0.06764000  0.01959000  0.13788000  1
  H  H40  1  0.36462000  0.47806000  0.29013000  1
  H  H41  1  0.92175000  0.44080000  0.36391000  1
  H  H42  1  0.67774000  0.74083000  0.22238000  1
  H  H43  1  0.73790000  0.32227000  0.43268000  1
  H  H44  1  0.42825000  0.43528000  0.48911000  1
  H  H45  1  0.22360000  0.04467000  0.22487000  1
  H  H46  1  0.24370000  0.57180000  0.16844000  1
  H  H47  1  0.47264000  0.10464000  0.47100000  1
  H  H48  1  0.13996000  0.27295000  0.43811000  1
  H  H49  1  0.50968000  0.02977000  0.59268000  1
  H  H50  1  0.46070000  0.36165000  0.61085000  1
  C  C51  1  0.54019000  0.98624000  0.21148000  1
  C  C52  1  0.46702000  0.93098000  0.17698000  1
  C  C53  1  0.40735000  0.80352000  0.28211000  1
  C  C54  1  0.39988000  0.83953000  0.21306000  1
  C  C55  1  0.84526000  0.21322000  0.90253000  1
  C  C56  1  0.48941000  0.85444000  0.31675000  1
  C  C57  1  0.11398000  0.75821000  0.76704000  1
  C  C58  1  0.95688000  0.82223000  0.75306000  1
  C  C59  1  0.24889000  0.47498000  0.71333000  1
  C  C60  1  0.97565000  0.45475000  0.77146000  1
  C  C61  1  0.94195000  0.28034000  0.85005000  1
  C  C62  1  0.22431000  0.84837000  0.91060000  1
  C  C63  1  0.85267000  0.79846000  0.70812000  1
  C  C64  1  0.46703000  0.96622000  0.10253000  1
  C  C65  1  0.13288000  0.84619000  0.85423000  1
  C  C66  1  0.46018000  0.61023000  0.63447000  1
  C  C67  1  0.55434000  0.94708000  0.28018000  1
  C  C68  1  0.90963000  0.77901000  0.64636000  1
  C  C69  1  0.69199000  0.78718000  0.72969000  1
  C  C70  1  0.13826000  0.40835000  0.75743000  1
  C  C71  1  0.10154000  0.23257000  0.83391000  1
  C  C72  1  0.59502000  0.75259000  0.69273000  1
  C  C73  1  0.40882000  0.46480000  0.73239000  1
  C  C74  1  0.19958000  0.76906000  0.81768000  1
  C  C75  1  0.98176000  0.91614000  0.83698000  1
  C  C76  1  0.54960000  0.72537000  0.52797000  1
  C  C77  1  0.51321000  0.53031000  0.69364000  1
  C  C78  1  0.20003000  0.55103000  0.65258000  1
  C  C79  1  0.65650000  0.72698000  0.63293000  1
  C  C80  1  0.19834000  0.29638000  0.78893000  1
  C  C81  1  0.30313000  0.61802000  0.61369000  1
  C  C82  1  0.55238000  0.65354000  0.48792000  1
  C  C83  1  0.89490000  0.90299000  0.78741000  1
  C  C84  1  0.87955000  0.39175000  0.81815000  1
  C  C85  1  0.51002000  0.81030000  0.38912000  1
  C  C86  1  0.53018000  0.83969000  0.49798000  1
  C  C87  1  0.81353000  0.74368000  0.60911000  1
  C  C88  1  0.51084000  0.88112000  0.42965000  1
  C  C89  1  0.53227000  0.69552000  0.41966000  1
  C  C90  1  0.45982000  0.01376000  0.78852000  1
  C  C91  1  0.53298000  0.06903000  0.82303000  1
  C  C92  1  0.59265000  0.19648000  0.71790000  1
  C  C93  1  0.60013000  0.16047000  0.78695000  1
  C  C94  1  0.15475000  0.78679000  0.09747000  1
  C  C95  1  0.51060000  0.14556000  0.68325000  1
  C  C96  1  0.88603000  0.24179000  0.23296000  1
  C  C97  1  0.04313000  0.17777000  0.24694000  1
  C  C98  1  0.75112000  0.52503000  0.28667000  1
  C  C99  1  0.02436000  0.54526000  0.22854000  1
  C  C100  1  0.05805000  0.71966000  0.14995000  1
  C  C101  1  0.77570000  0.15163000  0.08940000  1
  C  C102  1  0.14734000  0.20155000  0.29189000  1
  C  C103  1  0.53297000  0.03378000  0.89747000  1
  C  C104  1  0.86713000  0.15381000  0.14578000  1
  C  C105  1  0.53983000  0.38978000  0.36553000  1
  C  C106  1  0.44567000  0.05292000  0.71982000  1
  C  C107  1  0.09037000  0.22099000  0.35364000  1
  C  C108  1  0.30802000  0.21282000  0.27032000  1
  C  C109  1  0.86175000  0.59166000  0.24257000  1
  C  C110  1  0.89847000  0.76743000  0.16609000  1
  C  C111  1  0.40499000  0.24741000  0.30727000  1
  C  C112  1  0.59118000  0.53520000  0.26761000  1
  C  C113  1  0.80043000  0.23094000  0.18232000  1
  C  C114  1  0.01824000  0.08386000  0.16303000  1
  C  C115  1  0.45041000  0.27463000  0.47203000  1
  C  C116  1  0.48680000  0.46969000  0.30636000  1
  C  C117  1  0.79997000  0.44897000  0.34742000  1
  C  C118  1  0.34350000  0.27302000  0.36708000  1
  C  C119  1  0.80166000  0.70362000  0.21108000  1
  C  C120  1  0.69687000  0.38198000  0.38631000  1
  C  C121  1  0.44763000  0.34646000  0.51208000  1
  C  C122  1  0.10511000  0.09701000  0.21259000  1
  C  C123  1  0.12046000  0.60825000  0.18185000  1
  C  C124  1  0.48998000  0.18971000  0.61088000  1
  C  C125  1  0.46983000  0.16031000  0.50202000  1
  C  C126  1  0.18647000  0.25633000  0.39089000  1
  C  C127  1  0.48917000  0.11888000  0.57036000  1
  C  C128  1  0.46773000  0.30448000  0.58035000  1
  N  N129  1  0.56250000  0.68284000  0.59798000  1
  N  N130  1  0.43751000  0.31716000  0.40202000  1
  O  O131  1  0.35420000  0.77821000  0.92687000  1
  O  O132  1  0.17553000  0.92352000  0.94382000  1
  O  O133  1  0.71432000  0.25924000  0.92681000  1
  O  O134  1  0.90239000  0.10743000  0.92133000  1
  O  O135  1  0.45367000  0.06901000  0.07321000  1
  O  O136  1  0.48373000  0.88883000  0.07382000  1
  O  O137  1  0.64580000  0.22179000  0.07314000  1
  O  O138  1  0.82447000  0.07648000  0.05618000  1
  O  O139  1  0.28569000  0.74076000  0.07319000  1
  O  O140  1  0.09762000  0.89257000  0.07867000  1
  O  O141  1  0.54634000  0.93100000  0.92679000  1
  O  O142  1  0.51627000  0.11117000  0.92618000  1
