# generated using pymatgen
data_H9C20(NO)2
_symmetry_space_group_name_H-M   'P 1'
_cell_length_a   25.20407500
_cell_length_b   25.20410000
_cell_length_c   25.85400000
_cell_angle_alpha   90.00000000
_cell_angle_beta   90.00000000
_cell_angle_gamma   120.00009844
_symmetry_Int_Tables_number   1
_chemical_formula_structural   H9C20(NO)2
_chemical_formula_sum   'H54 C120 N12 O12'
_cell_volume   14223.28468546
_cell_formula_units_Z   6
loop_
 _symmetry_equiv_pos_site_id
 _symmetry_equiv_pos_as_xyz
  1  'x, y, z'
loop_
 _atom_site_type_symbol
 _atom_site_label
 _atom_site_symmetry_multiplicity
 _atom_site_fract_x
 _atom_site_fract_y
 _atom_site_fract_z
 _atom_site_occupancy
  C  1  1  0.41297150  0.47877550  0.98364100  1
  C  2  1  0.39391550  0.49245250  0.03138000  1
  C  3  1  0.35889100  0.52246700  0.03105900  1
  C  4  1  0.34740350  0.54208350  0.98350500  1
  C  5  1  0.36794050  0.53144850  0.93611600  1
  C  6  1  0.39887550  0.49736450  0.93587200  1
  C  7  1  0.41155250  0.47661850  0.07814600  1
  C  8  1  0.41527050  0.48036050  0.88907400  1
  C  10  1  0.44629050  0.44662550  0.98363800  1
  C  11  1  0.46538500  0.43298100  0.03136800  1
  C  12  1  0.50037500  0.40293000  0.03104000  1
  C  13  1  0.51181650  0.38328050  0.98348400  1
  C  14  1  0.49128800  0.39392100  0.93609200  1
  C  15  1  0.46032550  0.42797850  0.93586900  1
  C  16  1  0.44783100  0.44889000  0.07814300  1
  C  18  1  0.44385900  0.44491400  0.88907400  1
  C  23  1  0.96226150  0.47912250  0.31703400  1
  C  24  1  0.99500650  0.49815550  0.36476700  1
  C  25  1  0.06004650  0.53312350  0.36441900  1
  C  26  1  0.09114650  0.54453250  0.31687500  1
  C  27  1  0.05994950  0.52401850  0.26949400  1
  C  28  1  0.99493150  0.49316050  0.26925800  1
  C  29  1  0.96154950  0.48057550  0.41154200  1
  C  30  1  0.96151950  0.47677950  0.22246800  1
  C  32  1  0.89679200  0.44586300  0.31704600  1
  C  33  1  0.86406200  0.42679900  0.36478300  1
  C  34  1  0.79902100  0.39184600  0.36446600  1
  C  35  1  0.76792200  0.38045200  0.31691800  1
  C  36  1  0.79908300  0.40093800  0.26951700  1
  C  37  1  0.86410050  0.43185450  0.26928100  1
  C  38  1  0.89753550  0.44435850  0.41154900  1
  C  40  1  0.89749000  0.44830900  0.22248000  1
  C  45  1  0.41339400  0.92983300  0.65036100  1
  C  46  1  0.39976200  0.89709900  0.69809500  1
  C  47  1  0.36982750  0.83206450  0.69774200  1
  C  48  1  0.35004450  0.80095750  0.65020900  1
  C  49  1  0.36063900  0.83213700  0.60282700  1
  C  50  1  0.39474650  0.89715550  0.60258800  1
  C  51  1  0.41563400  0.93055900  0.74486800  1
  C  52  1  0.41170450  0.93056050  0.55579400  1
  C  54  1  0.44553550  0.99530250  0.65036700  1
  C  55  1  0.45915250  0.02803150  0.69810500  1
  C  56  1  0.48910450  0.09306750  0.69776100  1
  C  57  1  0.50890250  0.12418350  0.65023200  1
  C  58  1  0.49827900  0.09300300  0.60284700  1
  C  59  1  0.46419350  0.02798650  0.60259900  1
  C  60  1  0.44327250  0.99455750  0.74487250  1
  C  62  1  0.44725500  0.99459200  0.55579800  1
  C  67  1  0.49525750  0.36121250  0.89289700  1
  C  68  1  0.44121500  0.30883300  0.87603000  1
  C  70  1  0.49860600  0.27116500  0.83154300  1
  C  71  1  0.55480450  0.32387450  0.84536400  1
  C  72  1  0.55212050  0.36865550  0.87643700  1
  C  74  1  0.49848050  0.22349050  0.80308400  1
  C  75  1  0.44059650  0.12685550  0.76092300  1
  C  76  1  0.49427200  0.12991700  0.74124500  1
  C  77  1  0.55135050  0.18078150  0.75550000  1
  C  80  1  0.55450150  0.22847250  0.78652500  1
  C  81  1  0.61055900  0.28159800  0.79933100  1
  C  82  1  0.61076000  0.32839700  0.82964800  1
  C  89  1  0.76242200  0.39709400  0.22635600  1
  C  90  1  0.76411150  0.45109450  0.20934500  1
  C  92  1  0.66908150  0.39366350  0.16482900  1
  C  93  1  0.66558050  0.33748350  0.17872700  1
  C  94  1  0.71297900  0.34021300  0.20991700  1
  C  96  1  0.62155250  0.39375550  0.13631200  1
  C  97  1  0.58282600  0.45159900  0.09403600  1
  C  98  1  0.53220800  0.39787200  0.07447200  1
  C  99  1  0.52592000  0.34078500  0.08876800  1
  C  102  1  0.57052700  0.33770700  0.11976100  1
  C  103  1  0.56761000  0.28166900  0.13262200  1
  C  104  1  0.61418500  0.28150400  0.16299600  1
  C  111  1  0.53106050  0.12966950  0.55967400  1
  C  112  1  0.58333150  0.12795150  0.54257800  1
  C  114  1  0.62093850  0.22304150  0.49814700  1
  C  115  1  0.56827650  0.22654450  0.51210600  1
  C  116  1  0.52358650  0.17909650  0.54324700  1
  C  118  1  0.66855950  0.27060250  0.46965300  1
  C  119  1  0.76512200  0.30939100  0.42735400  1
  C  120  1  0.76211550  0.36013650  0.40792100  1
  C  121  1  0.71121000  0.36625500  0.42217400  1
  C  124  1  0.66355300  0.32166600  0.45319900  1
  C  125  1  0.61043550  0.32457250  0.46609000  1
  C  126  1  0.56370000  0.27796500  0.49644500  1
  C  133  1  0.36382100  0.56399800  0.89287200  1
  C  134  1  0.41784450  0.61631250  0.87584200  1
  C  136  1  0.36039800  0.65402700  0.83149500  1
  C  137  1  0.30421950  0.60135250  0.84539200  1
  C  138  1  0.30695250  0.55662550  0.87650000  1
  C  140  1  0.36049650  0.70168050  0.80302500  1
  C  141  1  0.41835300  0.79822800  0.76072500  1
  C  142  1  0.36461650  0.79518850  0.74123400  1
  C  143  1  0.30754300  0.74436700  0.75550400  1
  C  146  1  0.30444700  0.69668900  0.78651900  1
  C  147  1  0.24840600  0.64357600  0.79938300  1
  C  148  1  0.24824200  0.59680900  0.82971700  1
  C  155  1  0.09659600  0.52812900  0.22624000  1
  C  156  1  0.09503500  0.47413900  0.20933300  1
  C  158  1  0.19005850  0.53161650  0.16482200  1
  C  159  1  0.19349150  0.58777350  0.17869200  1
  C  160  1  0.14601500  0.58500700  0.20980100  1
  C  162  1  0.23763000  0.53156600  0.13633900  1
  C  163  1  0.27649450  0.47380250  0.09414000  1
  C  164  1  0.32708800  0.52752300  0.07450300  1
  C  165  1  0.33322100  0.58456300  0.08877900  1
  C  168  1  0.28863500  0.58762900  0.11980700  1
  C  169  1  0.29150400  0.64364700  0.13265300  1
  C  170  1  0.24488600  0.64377200  0.16299600  1
  C  177  1  0.32795950  0.79548350  0.55962700  1
  C  178  1  0.27558200  0.79705400  0.54260500  1
  C  180  1  0.23806050  0.70201950  0.49812000  1
  C  181  1  0.29077050  0.69859050  0.51203300  1
  C  182  1  0.33540500  0.74603400  0.54321600  1
  C  184  1  0.19045650  0.65443450  0.46963300  1
  C  185  1  0.09383450  0.61552450  0.42741900  1
  C  186  1  0.09693450  0.56487250  0.40786700  1
  C  187  1  0.14785050  0.55877650  0.42216300  1
  C  190  1  0.19553150  0.60343050  0.45312500  1
  C  191  1  0.24869150  0.60058650  0.46599400  1
  C  192  1  0.29541100  0.64721400  0.49634500  1
  H  9  1  0.32353200  0.56528500  0.98337400  1
  H  17  1  0.53566650  0.36005650  0.98335400  1
  H  19  1  0.45943650  0.43853350  0.11309300  1
  H  20  1  0.39986450  0.48688050  0.11310000  1
  H  21  1  0.45444600  0.43351400  0.85412500  1
  H  22  1  0.40463800  0.49171700  0.85412600  1
  H  31  1  0.13822000  0.56836400  0.31673200  1
  H  39  1  0.72084750  0.35665750  0.31679800  1
  H  41  1  0.87559050  0.43268150  0.44650700  1
  H  42  1  0.98351250  0.49217550  0.44649600  1
  H  43  1  0.87549550  0.43766250  0.18753400  1
  H  44  1  0.98349800  0.48735000  0.18751800  1
  H  53  1  0.32680800  0.75388500  0.65008600  1
  H  61  1  0.53214200  0.17125600  0.65011300  1
  H  63  1  0.45357900  0.01651000  0.77982700  1
  H  64  1  0.40533050  0.90859850  0.77981900  1
  H  65  1  0.45858500  0.01658500  0.52085200  1
  H  66  1  0.40032400  0.90858100  0.52084400  1
  H  73  1  0.59176900  0.40503800  0.89014500  1
  H  78  1  0.39904650  0.29962950  0.88883100  1
  H  83  1  0.59064350  0.18496650  0.73996100  1
  H  84  1  0.39810300  0.09294700  0.74972500  1
  H  86  1  0.67537750  0.30956350  0.75110000  1
  H  88  1  0.67929750  0.36911550  0.87382800  1
  H  95  1  0.70979100  0.30056600  0.22354800  1
  H  100  1  0.79708650  0.49327350  0.22210900  1
  H  105  1  0.49084150  0.30147150  0.07323000  1
  H  106  1  0.59132200  0.49407900  0.08288500  1
  H  108  1  0.53079600  0.21682500  0.08441200  1
  H  110  1  0.58634750  0.21300450  0.20722100  1
  H  117  1  0.48718900  0.18231900  0.55698100  1
  H  122  1  0.59255650  0.09500650  0.55538400  1
  H  127  1  0.70706050  0.40144850  0.40678800  1
  H  128  1  0.79910550  0.30089850  0.41619100  1
  H  130  1  0.58241300  0.36145800  0.41794700  1
  H  132  1  0.52304450  0.30574550  0.54073600  1
  H  139  1  0.26733100  0.52024600  0.89024850  1
  H  144  1  0.46001500  0.62565800  0.88875400  1
  H  149  1  0.26823900  0.74020000  0.74000700  1
  H  150  1  0.46082100  0.83224600  0.74957800  1
  H  152  1  0.18353100  0.61558300  0.75120800  1
  H  154  1  0.17976800  0.55613500  0.87396800  1
  H  161  1  0.14925700  0.62462900  0.22355100  1
  H  166  1  0.06210600  0.43194300  0.22211600  1
  H  171  1  0.36831300  0.62388800  0.07326900  1
  H  172  1  0.26797150  0.43133250  0.08292700  1
  H  174  1  0.32830600  0.70850400  0.08445100  1
  H  176  1  0.27265600  0.71226700  0.20721700  1
  H  183  1  0.37187400  0.74288200  0.55686500  1
  H  188  1  0.26631900  0.82999800  0.55534900  1
  H  193  1  0.15214400  0.52372900  0.40663700  1
  H  194  1  0.05988950  0.62404050  0.41618300  1
  H  196  1  0.27676400  0.56377700  0.41781900  1
  H  198  1  0.33613150  0.61947950  0.54060500  1
  N  69  1  0.44475450  0.26613450  0.84693500  1
  N  79  1  0.44450400  0.17324100  0.79006500  1
  N  91  1  0.71789950  0.44752750  0.18019600  1
  N  101  1  0.62527950  0.44772450  0.12324200  1
  N  113  1  0.62597600  0.17420100  0.51345600  1
  N  123  1  0.71878700  0.26688400  0.45652500  1
  N  135  1  0.41425650  0.65903950  0.84682600  1
  N  145  1  0.41447000  0.75190100  0.78993100  1
  N  157  1  0.14127750  0.47773650  0.18020800  1
  N  167  1  0.23397250  0.47763050  0.12328500  1
  N  179  1  0.23295750  0.75081050  0.51346800  1
  N  189  1  0.14017900  0.65807600  0.45654800  1
  O  85  1  0.66512850  0.28764350  0.78433100  1
  O  87  1  0.66542350  0.37881750  0.84147500  1
  O  107  1  0.51910650  0.22707850  0.11763400  1
  O  109  1  0.60994900  0.22685900  0.17488200  1
  O  129  1  0.60435800  0.37310000  0.45116800  1
  O  131  1  0.51329550  0.28219350  0.50836600  1
  O  151  1  0.19381850  0.63752150  0.78443200  1
  O  153  1  0.19359600  0.54640300  0.84160400  1
  O  173  1  0.33999300  0.69825200  0.11767600  1
  O  175  1  0.24906850  0.69839650  0.17486600  1
  O  195  1  0.25482500  0.55210100  0.45104400  1
  O  197  1  0.34585450  0.64304650  0.50824600  1
