# generated using pymatgen
data_TbH2C7(NO3)2
_symmetry_space_group_name_H-M   'P 1'
_cell_length_a   8.37822000
_cell_length_b   9.17651000
_cell_length_c   16.28973000
_cell_angle_alpha   89.95228000
_cell_angle_beta   89.88649000
_cell_angle_gamma   82.31254000
_symmetry_Int_Tables_number   1
_chemical_formula_structural   TbH2C7(NO3)2
_chemical_formula_sum   'Tb4 H8 C28 N8 O24'
_cell_volume   1241.14178632
_cell_formula_units_Z   4
loop_
 _symmetry_equiv_pos_site_id
 _symmetry_equiv_pos_as_xyz
  1  'x, y, z'
loop_
 _atom_site_type_symbol
 _atom_site_label
 _atom_site_symmetry_multiplicity
 _atom_site_fract_x
 _atom_site_fract_y
 _atom_site_fract_z
 _atom_site_occupancy
  Tb  Tb0  1  0.03421000  0.13181000  0.66395000  1
  Tb  Tb1  1  0.46504000  0.36947000  0.16442000  1
  Tb  Tb2  1  0.96591000  0.86851000  0.33621000  1
  Tb  Tb3  1  0.53477000  0.63203000  0.83586000  1
  H  H4  1  0.03141000  0.71552000  0.61226000  1
  H  H5  1  0.37788000  0.31349000  0.74309000  1
  H  H6  1  0.46987000  0.78764000  0.11249000  1
  H  H7  1  0.12267000  0.18925000  0.24387000  1
  H  H8  1  0.96849000  0.28448000  0.38796000  1
  H  H9  1  0.62282000  0.68673000  0.25692000  1
  H  H10  1  0.53035000  0.21331000  0.88815000  1
  H  H11  1  0.87765000  0.81185000  0.75652000  1
  C  C12  1  0.08139000  0.48206000  0.63171000  1
  C  C13  1  0.28157000  0.80240000  0.71127000  1
  C  C14  1  0.11048000  0.62734000  0.64182000  1
  C  C15  1  0.23835000  0.65170000  0.69175000  1
  C  C16  1  0.93161000  0.44934000  0.58528000  1
  C  C17  1  0.30034000  0.40319000  0.71371000  1
  C  C18  1  0.08665000  0.01612000  0.48790000  1
  C  C19  1  0.41864000  0.02122000  0.13148000  1
  C  C20  1  0.21971000  0.70046000  0.21149000  1
  C  C21  1  0.39030000  0.87582000  0.14187000  1
  C  C22  1  0.26244000  0.85129000  0.19201000  1
  C  C23  1  0.56856000  0.05426000  0.08496000  1
  C  C24  1  0.19971000  0.09954000  0.21410000  1
  C  C25  1  0.41369000  0.48514000  0.98809000  1
  C  C26  1  0.91883000  0.51799000  0.36840000  1
  C  C27  1  0.71765000  0.19778000  0.29003000  1
  C  C28  1  0.88952000  0.37278000  0.35844000  1
  C  C29  1  0.76101000  0.34861000  0.30891000  1
  C  C30  1  0.06822000  0.55081000  0.41503000  1
  C  C31  1  0.69996000  0.59690000  0.28636000  1
  C  C32  1  0.91394000  0.98396000  0.51230000  1
  C  C33  1  0.58145000  0.97982000  0.86876000  1
  C  C34  1  0.78027000  0.30042000  0.78873000  1
  C  C35  1  0.60985000  0.12524000  0.85861000  1
  C  C36  1  0.73755000  0.14972000  0.80837000  1
  C  C37  1  0.43148000  0.94680000  0.91509000  1
  C  C38  1  0.80037000  0.90149000  0.78619000  1
  C  C39  1  0.58609000  0.51834000  0.01222000  1
  N  N40  1  0.17801000  0.36925000  0.66717000  1
  N  N41  1  0.33400000  0.53938000  0.72823000  1
  N  N42  1  0.32162000  0.13372000  0.16706000  1
  N  N43  1  0.16638000  0.96326000  0.22868000  1
  N  N44  1  0.82245000  0.63071000  0.33278000  1
  N  N45  1  0.66554000  0.46082000  0.27225000  1
  N  N46  1  0.67833000  0.86732000  0.83311000  1
  N  N47  1  0.83357000  0.03779000  0.77166000  1
  O  O48  1  0.91256000  0.31143000  0.58341000  1
  O  O49  1  0.17393000  0.91215000  0.70224000  1
  O  O50  1  0.17251000  0.06059000  0.54373000  1
  O  O51  1  0.42204000  0.80746000  0.73812000  1
  O  O52  1  0.12732000  0.99538000  0.41309000  1
  O  O53  1  0.84221000  0.55451000  0.55589000  1
  O  O54  1  0.58762000  0.19219000  0.08324000  1
  O  O55  1  0.32773000  0.59104000  0.20249000  1
  O  O56  1  0.32766000  0.44114000  0.04426000  1
  O  O57  1  0.07877000  0.69528000  0.23796000  1
  O  O58  1  0.37362000  0.50349000  0.91312000  1
  O  O59  1  0.65831000  0.94931000  0.05560000  1
  O  O60  1  0.08734000  0.68868000  0.41676000  1
  O  O61  1  0.82506000  0.08839000  0.30092000  1
  O  O62  1  0.82852000  0.93836000  0.45666000  1
  O  O63  1  0.57815000  0.19234000  0.26204000  1
  O  O64  1  0.87279000  0.00592000  0.58697000  1
  O  O65  1  0.15746000  0.44560000  0.44450000  1
  O  O66  1  0.41230000  0.80888000  0.91677000  1
  O  O67  1  0.67248000  0.41002000  0.79778000  1
  O  O68  1  0.67178000  0.56390000  0.95636000  1
  O  O69  1  0.92116000  0.30506000  0.76200000  1
  O  O70  1  0.62690000  0.49669000  0.08687000  1
  O  O71  1  0.34163000  0.05161000  0.94448000  1
