# generated using pymatgen
data_NdHC5(NO2)2
_symmetry_space_group_name_H-M   'P 1'
_cell_length_a   16.54405669
_cell_length_b   16.54410000
_cell_length_c   16.54410000
_cell_angle_alpha   104.52400000
_cell_angle_beta   104.52378390
_cell_angle_gamma   119.89631321
_symmetry_Int_Tables_number   1
_chemical_formula_structural   NdHC5(NO2)2
_chemical_formula_sum   'Nd16 H16 C80 N32 O64'
_cell_volume   3397.93800201
_cell_formula_units_Z   16
loop_
 _symmetry_equiv_pos_site_id
 _symmetry_equiv_pos_as_xyz
  1  'x, y, z'
loop_
 _atom_site_type_symbol
 _atom_site_label
 _atom_site_symmetry_multiplicity
 _atom_site_fract_x
 _atom_site_fract_y
 _atom_site_fract_z
 _atom_site_occupancy
  Nd  Nd1  1  0.61579000  0.25481000  0.01658000  1.0
  Nd  Nd2  1  0.52945000  0.51129000  0.38228000  1.0
  Nd  Nd3  1  0.23823000  0.09921000  0.48342000  1.0
  Nd  Nd4  1  0.12901000  0.64717000  0.11772000  1.0
  Nd  Nd5  1  0.75481000  0.73823000  0.13902000  1.0
  Nd  Nd6  1  0.01129000  0.62901000  0.48184000  1.0
  Nd  Nd7  1  0.59921000  0.11579000  0.36098000  1.0
  Nd  Nd8  1  0.14717000  0.02945000  0.01816000  1.0
  Nd  Nd9  1  0.38421000  0.74519000  0.98342000  1.0
  Nd  Nd10  1  0.47055000  0.48871000  0.61772000  1.0
  Nd  Nd11  1  0.76177000  0.90079000  0.51658000  1.0
  Nd  Nd12  1  0.87099000  0.35283000  0.88228000  1.0
  Nd  Nd13  1  0.24519000  0.26177000  0.86098000  1.0
  Nd  Nd14  1  0.98871000  0.37099000  0.51816000  1.0
  Nd  Nd15  1  0.40079000  0.88421000  0.63902000  1.0
  Nd  Nd16  1  0.85283000  0.97055000  0.98184000  1.0
  H  H1  1  0.55060000  0.31110000  0.22910000  1.0
  H  H2  1  0.76190000  0.37740000  0.27610000  1.0
  H  H3  1  0.08200000  0.82150000  0.27090000  1.0
  H  H4  1  0.10130000  0.98580000  0.22390000  1.0
  H  H5  1  0.81110000  0.58200000  0.26050000  1.0
  H  H6  1  0.87740000  0.60130000  0.11550000  1.0
  H  H7  1  0.32150000  0.05060000  0.23950000  1.0
  H  H8  1  0.48580000  0.26190000  0.38450000  1.0
  H  H9  1  0.44940000  0.68890000  0.77090000  1.0
  H  H10  1  0.23810000  0.62260000  0.72390000  1.0
  H  H11  1  0.91800000  0.17850000  0.72910000  1.0
  H  H12  1  0.89870000  0.01420000  0.77610000  1.0
  H  H13  1  0.18890000  0.41800000  0.73950000  1.0
  H  H14  1  0.12260000  0.39870000  0.88450000  1.0
  H  H15  1  0.67850000  0.94940000  0.76050000  1.0
  H  H16  1  0.51420000  0.73810000  0.61550000  1.0
  C  C1  1  0.56580000  0.36210000  0.20870000  1.0
  C  C2  1  0.60400000  0.44870000  0.12830000  1.0
  C  C3  1  0.59300000  0.50110000  0.20070000  1.0
  C  C4  1  0.59980000  0.59660000  0.23200000  1.0
  C  C5  1  0.63050000  0.46900000  0.05310000  1.0
  C  C6  1  0.81010000  0.40970000  0.25440000  1.0
  C  C7  1  0.87770000  0.44510000  0.16040000  1.0
  C  C8  1  0.95470000  0.51220000  0.25470000  1.0
  C  C9  1  0.06590000  0.60110000  0.29840000  1.0
  C  C10  1  0.87390000  0.42660000  0.07010000  1.0
  C  C11  1  0.15340000  0.85710000  0.29130000  1.0
  C  C12  1  0.32040000  0.97570000  0.37170000  1.0
  C  C13  1  0.30040000  0.89230000  0.29930000  1.0
  C  C14  1  0.36460000  0.86780000  0.26800000  1.0
  C  C15  1  0.41590000  0.07740000  0.44690000  1.0
  C  C16  1  0.15530000  0.05570000  0.24560000  1.0
  C  C17  1  0.28470000  0.21730000  0.33960000  1.0
  C  C18  1  0.25750000  0.20000000  0.24530000  1.0
  C  C19  1  0.30270000  0.26750000  0.20160000  1.0
  C  C20  1  0.35650000  0.30380000  0.42990000  1.0
  C  C21  1  0.86210000  0.65340000  0.29630000  1.0
  C  C22  1  0.94870000  0.82040000  0.34470000  1.0
  C  C23  1  0.00110000  0.80040000  0.40810000  1.0
  C  C24  1  0.09660000  0.86460000  0.49680000  1.0
  C  C25  1  0.96900000  0.91590000  0.33850000  1.0
  C  C26  1  0.90970000  0.65530000  0.09960000  1.0
  C  C27  1  0.94510000  0.78470000  0.06740000  1.0
  C  C28  1  0.01220000  0.75750000  0.05750000  1.0
  C  C29  1  0.10110000  0.80270000  0.03520000  1.0
  C  C30  1  0.92660000  0.85650000  0.05270000  1.0
  C  C31  1  0.35710000  0.06580000  0.20370000  1.0
  C  C32  1  0.47570000  0.10400000  0.15530000  1.0
  C  C33  1  0.39230000  0.09300000  0.09190000  1.0
  C  C34  1  0.36780000  0.09980000  0.00320000  1.0
  C  C35  1  0.57740000  0.13050000  0.16150000  1.0
  C  C36  1  0.55570000  0.31010000  0.40040000  1.0
  C  C37  1  0.71730000  0.37770000  0.43260000  1.0
  C  C38  1  0.70000000  0.45470000  0.44250000  1.0
  C  C39  1  0.76750000  0.56590000  0.46480000  1.0
  C  C40  1  0.80380000  0.37390000  0.44730000  1.0
  C  C41  1  0.43420000  0.63790000  0.79130000  1.0
  C  C42  1  0.39600000  0.55130000  0.87170000  1.0
  C  C43  1  0.40700000  0.49890000  0.79930000  1.0
  C  C44  1  0.40020000  0.40340000  0.76800000  1.0
  C  C45  1  0.36950000  0.53100000  0.94690000  1.0
  C  C46  1  0.18990000  0.59030000  0.74560000  1.0
  C  C47  1  0.12230000  0.55490000  0.83960000  1.0
  C  C48  1  0.04530000  0.48780000  0.74530000  1.0
  C  C49  1  0.93410000  0.39890000  0.70160000  1.0
  C  C50  1  0.12610000  0.57340000  0.92990000  1.0
  C  C51  1  0.84660000  0.14290000  0.70870000  1.0
  C  C52  1  0.67960000  0.02430000  0.62830000  1.0
  C  C53  1  0.69960000  0.10770000  0.70070000  1.0
  C  C54  1  0.63540000  0.13220000  0.73200000  1.0
  C  C55  1  0.58410000  0.92260000  0.55310000  1.0
  C  C56  1  0.84470000  0.94430000  0.75440000  1.0
  C  C57  1  0.71530000  0.78270000  0.66040000  1.0
  C  C58  1  0.74250000  0.80000000  0.75470000  1.0
  C  C59  1  0.69730000  0.73250000  0.79840000  1.0
  C  C60  1  0.64350000  0.69620000  0.57010000  1.0
  C  C61  1  0.13790000  0.34660000  0.70370000  1.0
  C  C62  1  0.05130000  0.17960000  0.65530000  1.0
  C  C63  1  0.99890000  0.19960000  0.59190000  1.0
  C  C64  1  0.90340000  0.13540000  0.50320000  1.0
  C  C65  1  0.03100000  0.08410000  0.66150000  1.0
  C  C66  1  0.09030000  0.34470000  0.90040000  1.0
  C  C67  1  0.05490000  0.21530000  0.93260000  1.0
  C  C68  1  0.98780000  0.24250000  0.94250000  1.0
  C  C69  1  0.89890000  0.19730000  0.96480000  1.0
  C  C70  1  0.07340000  0.14350000  0.94730000  1.0
  C  C71  1  0.64290000  0.93420000  0.79630000  1.0
  C  C72  1  0.52430000  0.89600000  0.84470000  1.0
  C  C73  1  0.60770000  0.90700000  0.90810000  1.0
  C  C74  1  0.63220000  0.90020000  0.99680000  1.0
  C  C75  1  0.42260000  0.86950000  0.83850000  1.0
  C  C76  1  0.44430000  0.68990000  0.59960000  1.0
  C  C77  1  0.28270000  0.62230000  0.56740000  1.0
  C  C78  1  0.30000000  0.54530000  0.55750000  1.0
  C  C79  1  0.23250000  0.43410000  0.53520000  1.0
  C  C80  1  0.19620000  0.62610000  0.55270000  1.0
  N  N1  1  0.56940000  0.44480000  0.24920000  1.0
  N  N2  1  0.58640000  0.36010000  0.13530000  1.0
  N  N3  1  0.78370000  0.38030000  0.16360000  1.0
  N  N4  1  0.90910000  0.48750000  0.31180000  1.0
  N  N5  1  0.19560000  0.82020000  0.25080000  1.0
  N  N6  1  0.22480000  0.95110000  0.36470000  1.0
  N  N7  1  0.21670000  0.12010000  0.33640000  1.0
  N  N8  1  0.17570000  0.09730000  0.18820000  1.0
  N  N9  1  0.94480000  0.69560000  0.37540000  1.0
  N  N10  1  0.86010000  0.72480000  0.27370000  1.0
  N  N11  1  0.88030000  0.71670000  0.09660000  1.0
  N  N12  1  0.98750000  0.67570000  0.07840000  1.0
  N  N13  1  0.32020000  0.06940000  0.12460000  1.0
  N  N14  1  0.45110000  0.08640000  0.22630000  1.0
  N  N15  1  0.62010000  0.28370000  0.40340000  1.0
  N  N16  1  0.59730000  0.40910000  0.42160000  1.0
  N  N17  1  0.43060000  0.55520000  0.75080000  1.0
  N  N18  1  0.41360000  0.63990000  0.86470000  1.0
  N  N19  1  0.21630000  0.61970000  0.83640000  1.0
  N  N20  1  0.09090000  0.51250000  0.68820000  1.0
  N  N21  1  0.80440000  0.17980000  0.74920000  1.0
  N  N22  1  0.77520000  0.04890000  0.63530000  1.0
  N  N23  1  0.78330000  0.87990000  0.66360000  1.0
  N  N24  1  0.82430000  0.90270000  0.81180000  1.0
  N  N25  1  0.05520000  0.30440000  0.62460000  1.0
  N  N26  1  0.13990000  0.27520000  0.72630000  1.0
  N  N27  1  0.11970000  0.28330000  0.90340000  1.0
  N  N28  1  0.01250000  0.32430000  0.92160000  1.0
  N  N29  1  0.67980000  0.93060000  0.87540000  1.0
  N  N30  1  0.54890000  0.91360000  0.77370000  1.0
  N  N31  1  0.37990000  0.71630000  0.59660000  1.0
  N  N32  1  0.40270000  0.59090000  0.57840000  1.0
  O  O1  1  0.56670000  0.60900000  0.29190000  1.0
  O  O2  1  0.63330000  0.66060000  0.19890000  1.0
  O  O3  1  0.66350000  0.55600000  0.05330000  1.0
  O  O4  1  0.62830000  0.40010000  0.99840000  1.0
  O  O5  1  0.10670000  0.65350000  0.38700000  1.0
  O  O6  1  0.11480000  0.61860000  0.24920000  1.0
  O  O7  1  0.95690000  0.47300000  0.05830000  1.0
  O  O8  1  0.78660000  0.35980000  0.99860000  1.0
  O  O9  1  0.31710000  0.77480000  0.20810000  1.0
  O  O10  1  0.46170000  0.93440000  0.30110000  1.0
  O  O11  1  0.50270000  0.11020000  0.44670000  1.0
  O  O12  1  0.40170000  0.12990000  0.50160000  1.0
  O  O13  1  0.26650000  0.21970000  0.11300000  1.0
  O  O14  1  0.36940000  0.36560000  0.25080000  1.0
  O  O15  1  0.41470000  0.39860000  0.44170000  1.0
  O  O16  1  0.36120000  0.28800000  0.50140000  1.0
  O  O17  1  0.10900000  0.81710000  0.54230000  1.0
  O  O18  1  0.16060000  0.96170000  0.52730000  1.0
  O  O19  1  0.05600000  0.00270000  0.39250000  1.0
  O  O20  1  0.90010000  0.90170000  0.27180000  1.0
  O  O21  1  0.15350000  0.76650000  0.04680000  1.0
  O  O22  1  0.11860000  0.86940000  0.00380000  1.0
  O  O23  1  0.97300000  0.91470000  0.01610000  1.0
  O  O24  1  0.85980000  0.86120000  0.07320000  1.0
  O  O25  1  0.27480000  0.06670000  0.95770000  1.0
  O  O26  1  0.43440000  0.13330000  0.97270000  1.0
  O  O27  1  0.61020000  0.16350000  0.10750000  1.0
  O  O28  1  0.62990000  0.12830000  0.22820000  1.0
  O  O29  1  0.71970000  0.60670000  0.45320000  1.0
  O  O30  1  0.86560000  0.61480000  0.49620000  1.0
  O  O31  1  0.89860000  0.45690000  0.48390000  1.0
  O  O32  1  0.78800000  0.28660000  0.42680000  1.0
  O  O33  1  0.43330000  0.39100000  0.70810000  1.0
  O  O34  1  0.36670000  0.33940000  0.80110000  1.0
  O  O35  1  0.33650000  0.44400000  0.94670000  1.0
  O  O36  1  0.37170000  0.59990000  0.00160000  1.0
  O  O37  1  0.89330000  0.34650000  0.61300000  1.0
  O  O38  1  0.88520000  0.38140000  0.75080000  1.0
  O  O39  1  0.04310000  0.52700000  0.94170000  1.0
  O  O40  1  0.21340000  0.64020000  0.00140000  1.0
  O  O41  1  0.68290000  0.22520000  0.79190000  1.0
  O  O42  1  0.53830000  0.06560000  0.69890000  1.0
  O  O43  1  0.49730000  0.88980000  0.55330000  1.0
  O  O44  1  0.59830000  0.87010000  0.49840000  1.0
  O  O45  1  0.73350000  0.78030000  0.88700000  1.0
  O  O46  1  0.63060000  0.63440000  0.74920000  1.0
  O  O47  1  0.58530000  0.60140000  0.55830000  1.0
  O  O48  1  0.63880000  0.71200000  0.49860000  1.0
  O  O49  1  0.89100000  0.18290000  0.45770000  1.0
  O  O50  1  0.83940000  0.03830000  0.47270000  1.0
  O  O51  1  0.94400000  0.99730000  0.60750000  1.0
  O  O52  1  0.09990000  0.09830000  0.72820000  1.0
  O  O53  1  0.84650000  0.23350000  0.95320000  1.0
  O  O54  1  0.88140000  0.13060000  0.99620000  1.0
  O  O55  1  0.02700000  0.08530000  0.98390000  1.0
  O  O56  1  0.14020000  0.13880000  0.92680000  1.0
  O  O57  1  0.72520000  0.93330000  0.04230000  1.0
  O  O58  1  0.56560000  0.86670000  0.02730000  1.0
  O  O59  1  0.38980000  0.83650000  0.89250000  1.0
  O  O60  1  0.37010000  0.87170000  0.77180000  1.0
  O  O61  1  0.28030000  0.39330000  0.54680000  1.0
  O  O62  1  0.13440000  0.38520000  0.50380000  1.0
  O  O63  1  0.10140000  0.54310000  0.51610000  1.0
  O  O64  1  0.21200000  0.71340000  0.57320000  1.0
