# generated using pymatgen
data_CdCuH4(C3O4)2
_symmetry_space_group_name_H-M   'P 1'
_cell_length_a   7.60140000
_cell_length_b   12.73085000
_cell_length_c   14.08927000
_cell_angle_alpha   89.94305000
_cell_angle_beta   89.99006000
_cell_angle_gamma   89.97164000
_symmetry_Int_Tables_number   1
_chemical_formula_structural   CdCuH4(C3O4)2
_chemical_formula_sum   'Cd4 Cu4 H16 C24 O32'
_cell_volume   1363.44996543
_cell_formula_units_Z   4
loop_
 _symmetry_equiv_pos_site_id
 _symmetry_equiv_pos_as_xyz
  1  'x, y, z'
loop_
 _atom_site_type_symbol
 _atom_site_label
 _atom_site_symmetry_multiplicity
 _atom_site_fract_x
 _atom_site_fract_y
 _atom_site_fract_z
 _atom_site_occupancy
  Cd  Cd0  1  0.99744000  0.74920000  0.26924000  1
  Cd  Cd1  1  0.50239000  0.74929000  0.76944000  1
  Cd  Cd2  1  0.00257000  0.25079000  0.73076000  1
  Cd  Cd3  1  0.49761000  0.25070000  0.23056000  1
  Cu  Cu4  1  0.50001000  0.00000000  0.50000000  1
  Cu  Cu5  1  0.50000000  0.50000000  0.50000000  1
  Cu  Cu6  1  0.00001000  0.99999000  0.00000000  1
  Cu  Cu7  1  0.00000000  0.50000000  0.00000000  1
  H  H8  1  0.62680000  0.89393000  0.22018000  1
  H  H9  1  0.57144000  0.62285000  0.28748000  1
  H  H10  1  0.07131000  0.37795000  0.21227000  1
  H  H11  1  0.87334000  0.89398000  0.72030000  1
  H  H12  1  0.07102000  0.87792000  0.78620000  1
  H  H13  1  0.92899000  0.12207000  0.21380000  1
  H  H14  1  0.87421000  0.39187000  0.27924000  1
  H  H15  1  0.37438000  0.60766000  0.22065000  1
  H  H16  1  0.42856000  0.37715000  0.71252000  1
  H  H17  1  0.92869000  0.62204000  0.78772000  1
  H  H18  1  0.37321000  0.10607000  0.77982000  1
  H  H19  1  0.62562000  0.39234000  0.77935000  1
  H  H20  1  0.12580000  0.60813000  0.72076000  1
  H  H21  1  0.57098000  0.12210000  0.71396000  1
  H  H22  1  0.42903000  0.87790000  0.28604000  1
  H  H23  1  0.12666000  0.10601000  0.27969000  1
  C  C24  1  0.93639000  0.41056000  0.21119000  1
  C  C25  1  0.34330000  0.64639000  0.36896000  1
  C  C26  1  0.84342000  0.85425000  0.86840000  1
  C  C27  1  0.93695000  0.91175000  0.78818000  1
  C  C28  1  0.84326000  0.35339000  0.13079000  1
  C  C29  1  0.45735000  0.47207000  0.29821000  1
  C  C30  1  0.06362000  0.58944000  0.78880000  1
  C  C31  1  0.65649000  0.85420000  0.36834000  1
  C  C32  1  0.56306000  0.91167000  0.28805000  1
  C  C33  1  0.43694000  0.08833000  0.71195000  1
  C  C34  1  0.04194000  0.97091000  0.20180000  1
  C  C35  1  0.04528000  0.47202000  0.79820000  1
  C  C36  1  0.15659000  0.14574000  0.13159000  1
  C  C37  1  0.95806000  0.02908000  0.79820000  1
  C  C38  1  0.45806000  0.97104000  0.70190000  1
  C  C39  1  0.54194000  0.02896000  0.29810000  1
  C  C40  1  0.34352000  0.14580000  0.63166000  1
  C  C41  1  0.65670000  0.35360000  0.63103000  1
  C  C42  1  0.06305000  0.08824000  0.21182000  1
  C  C43  1  0.56287000  0.41057000  0.71135000  1
  C  C44  1  0.15675000  0.64661000  0.86921000  1
  C  C45  1  0.95472000  0.52797000  0.20180000  1
  C  C46  1  0.54265000  0.52792000  0.70178000  1
  C  C47  1  0.43713000  0.58943000  0.28865000  1
  O  O48  1  0.50815000  0.92863000  0.62417000  1
  O  O49  1  0.35764000  0.11534000  0.54579000  1
  O  O50  1  0.99192000  0.92837000  0.12411000  1
  O  O51  1  0.99997000  0.57165000  0.12381000  1
  O  O52  1  0.50680000  0.42876000  0.37571000  1
  O  O53  1  0.49320000  0.57124000  0.62429000  1
  O  O54  1  0.00003000  0.42834000  0.87619000  1
  O  O55  1  0.42966000  0.91641000  0.77615000  1
  O  O56  1  0.92887000  0.58158000  0.27677000  1
  O  O57  1  0.63498000  0.38149000  0.54477000  1
  O  O58  1  0.24797000  0.72637000  0.84778000  1
  O  O59  1  0.25171000  0.72605000  0.34763000  1
  O  O60  1  0.14242000  0.11530000  0.04572000  1
  O  O61  1  0.25859000  0.22817000  0.65281000  1
  O  O62  1  0.57034000  0.08359000  0.22384000  1
  O  O63  1  0.36503000  0.61851000  0.45523000  1
  O  O64  1  0.75204000  0.27362000  0.15222000  1
  O  O65  1  0.74141000  0.77183000  0.34719000  1
  O  O66  1  0.49186000  0.07138000  0.37582000  1
  O  O67  1  0.00810000  0.07161000  0.87589000  1
  O  O68  1  0.64237000  0.88466000  0.45421000  1
  O  O69  1  0.74830000  0.27395000  0.65237000  1
  O  O70  1  0.92977000  0.08368000  0.72389000  1
  O  O71  1  0.85759000  0.88469000  0.95427000  1
  O  O72  1  0.07024000  0.91632000  0.27611000  1
  O  O73  1  0.75848000  0.77193000  0.84724000  1
  O  O74  1  0.24152000  0.22806000  0.15276000  1
  O  O75  1  0.57118000  0.58170000  0.77641000  1
  O  O76  1  0.86508000  0.38124000  0.04451000  1
  O  O77  1  0.07114000  0.41841000  0.72323000  1
  O  O78  1  0.13492000  0.61875000  0.95549000  1
  O  O79  1  0.42882000  0.41829000  0.22359000  1
