# generated using pymatgen
data_Zn2H9(C3O)8
_symmetry_space_group_name_H-M   'P 1'
_cell_length_a   12.19882682
_cell_length_b   15.19375295
_cell_length_c   26.15213221
_cell_angle_alpha   89.99973278
_cell_angle_beta   78.22518575
_cell_angle_gamma   89.99959973
_symmetry_Int_Tables_number   1
_chemical_formula_structural   Zn2H9(C3O)8
_chemical_formula_sum   'Zn8 H36 C96 O32'
_cell_volume   4745.19351118
_cell_formula_units_Z   4
loop_
 _symmetry_equiv_pos_site_id
 _symmetry_equiv_pos_as_xyz
  1  'x, y, z'
loop_
 _atom_site_type_symbol
 _atom_site_label
 _atom_site_symmetry_multiplicity
 _atom_site_fract_x
 _atom_site_fract_y
 _atom_site_fract_z
 _atom_site_occupancy
  Zn  Zn1  1  0.16019351  0.49702686  0.86124428  1.0
  Zn  Zn2  1  0.04636652  0.37374007  0.79265670  1.0
  Zn  Zn3  1  0.33980223  0.99702429  0.63875609  1.0
  Zn  Zn4  1  0.45362578  0.87374063  0.70734393  1.0
  Zn  Zn5  1  0.83979378  0.50297313  0.13875912  1.0
  Zn  Zn6  1  0.95362220  0.62625944  0.20734443  1.0
  Zn  Zn7  1  0.66020648  0.00297338  0.36124210  1.0
  Zn  Zn8  1  0.54638062  0.12625881  0.29265564  1.0
  H  H1  1  0.17886795  0.51424689  0.59427503  1.0
  H  H2  1  0.21608081  0.37678460  0.54522692  1.0
  H  H3  1  0.92918967  0.75824048  0.59313091  1.0
  H  H4  1  0.14733613  0.22077150  0.55795349  1.0
  H  H5  1  0.43165300  0.07626386  0.47438503  1.0
  H  H6  1  0.27081498  0.26790429  0.39334838  1.0
  H  H7  1  0.13817988  0.78448042  0.60530049  1.0
  H  H8  1  0.20078832  0.69675563  0.75330750  1.0
  H  H9  1  0.01160150  0.53371309  0.66870253  1.0
  H  H10  1  0.32113327  0.01424932  0.90572431  1.0
  H  H11  1  0.28391927  0.87678799  0.95477392  1.0
  H  H12  1  0.57080776  0.25824284  0.90686900  1.0
  H  H13  1  0.35266730  0.72077471  0.94204641  1.0
  H  H14  1  0.06834979  0.57626904  0.02561473  1.0
  H  H15  1  0.22918963  0.76790176  0.10665182  1.0
  H  H16  1  0.36182336  0.28448138  0.89469798  1.0
  H  H17  1  0.29921937  0.19676502  0.74668878  1.0
  H  H18  1  0.48839648  0.03371212  0.83129597  1.0
  H  H19  1  0.82113903  0.48575604  0.40572275  1.0
  H  H20  1  0.78392481  0.62321578  0.45477259  1.0
  H  H21  1  0.07081677  0.24176195  0.40686719  1.0
  H  H22  1  0.85266484  0.77922821  0.44204614  1.0
  H  H23  1  0.56834802  0.92373596  0.52561370  1.0
  H  H24  1  0.72918807  0.73209665  0.60665072  1.0
  H  H25  1  0.86182861  0.21551848  0.39470003  1.0
  H  H26  1  0.79921607  0.30323671  0.24669180  1.0
  H  H27  1  0.98839952  0.46628587  0.33129400  1.0
  H  H28  1  0.67886890  0.98574883  0.09427395  1.0
  H  H29  1  0.71608026  0.12321211  0.04522579  1.0
  H  H30  1  0.42918641  0.74175941  0.09313332  1.0
  H  H31  1  0.64732958  0.27922603  0.05795704  1.0
  H  H32  1  0.93163817  0.42373760  0.97438942  1.0
  H  H33  1  0.77081024  0.23209461  0.89335250  1.0
  H  H34  1  0.63816938  0.71551554  0.10530416  1.0
  H  H35  1  0.70077836  0.80323894  0.25331108  1.0
  H  H36  1  0.51160049  0.96628869  0.16870214  1.0
  C  C1  1  0.13017598  0.49788820  0.56500378  1.0
  C  C2  1  0.15088141  0.42102843  0.53769397  1.0
  C  C3  1  0.08966547  0.39752371  0.49859159  1.0
  C  C4  1  0.98970383  0.54059334  0.51405027  1.0
  C  C5  1  0.04716894  0.55883497  0.55542801  1.0
  C  C6  1  0.02261506  0.63787060  0.58431808  1.0
  C  C7  1  0.94746300  0.69790028  0.57035357  1.0
  C  C8  1  0.10944945  0.31782282  0.47008832  1.0
  C  C9  1  0.19818099  0.25371185  0.47547479  1.0
  C  C10  1  0.20713604  0.20894034  0.52148075  1.0
  C  C11  1  0.29147196  0.14572812  0.52110009  1.0
  C  C12  1  0.36728265  0.12607731  0.47466609  1.0
  C  C13  1  0.35839551  0.17029290  0.42881592  1.0
  C  C14  1  0.27538920  0.23386266  0.42949571  1.0
  C  C15  1  0.07017577  0.65632754  0.63083042  1.0
  C  C16  1  0.12655840  0.73507324  0.63617017  1.0
  C  C17  1  0.17343199  0.74950016  0.68012298  1.0
  C  C18  1  0.16224049  0.68638063  0.71977202  1.0
  C  C19  1  0.10260475  0.60933487  0.71554998  1.0
  C  C20  1  0.05724632  0.59449943  0.67131046  1.0
  C  C21  1  0.09108460  0.54042928  0.75658302  1.0
  C  C22  1  0.43345147  0.14926511  0.37870059  1.0
  C  C23  1  0.24494177  0.82802841  0.68292190  1.0
  C  C24  1  0.29974929  0.09600127  0.56956201  1.0
  C  C25  1  0.36982793  0.99788937  0.93499533  1.0
  C  C26  1  0.34911942  0.92102916  0.96230489  1.0
  C  C27  1  0.41033968  0.89752380  0.00140719  1.0
  C  C28  1  0.51029990  0.04059193  0.98594843  1.0
  C  C29  1  0.45283337  0.05883156  0.94457008  1.0
  C  C30  1  0.47739048  0.13787230  0.91568029  1.0
  C  C31  1  0.55253497  0.19790052  0.92964678  1.0
  C  C32  1  0.39055371  0.81782141  0.02991153  1.0
  C  C33  1  0.30182258  0.75371354  0.02452404  1.0
  C  C34  1  0.29286643  0.70894179  0.97851931  1.0
  C  C35  1  0.20853213  0.64573100  0.97889862  1.0
  C  C36  1  0.13271806  0.62607999  0.02533350  1.0
  C  C37  1  0.14160947  0.67029307  0.07118349  1.0
  C  C38  1  0.22461457  0.73386117  0.07050452  1.0
  C  C39  1  0.42982900  0.15632711  0.86916580  1.0
  C  C40  1  0.37344706  0.23507667  0.86382917  1.0
  C  C41  1  0.32657285  0.24950418  0.81987311  1.0
  C  C42  1  0.33776849  0.18638776  0.78022639  1.0
  C  C43  1  0.39739629  0.10934108  0.78444618  1.0
  C  C44  1  0.44275850  0.09450100  0.82868760  1.0
  C  C45  1  0.40891863  0.04042918  0.74341903  1.0
  C  C46  1  0.06655414  0.64926511  0.12129901  1.0
  C  C47  1  0.25505814  0.32803471  0.81708179  1.0
  C  C48  1  0.20024929  0.59600255  0.93043859  1.0
  C  C49  1  0.86983268  0.50211465  0.43499432  1.0
  C  C50  1  0.84912381  0.57897490  0.46230403  1.0
  C  C51  1  0.91034248  0.60247754  0.50140595  1.0
  C  C52  1  0.01030395  0.45941047  0.48594705  1.0
  C  C53  1  0.95283846  0.44116900  0.44456958  1.0
  C  C54  1  0.97739254  0.36213103  0.41567892  1.0
  C  C55  1  0.05254248  0.30210280  0.42964487  1.0
  C  C56  1  0.89055753  0.68218045  0.52991049  1.0
  C  C57  1  0.80182078  0.74628975  0.52452454  1.0
  C  C58  1  0.79286834  0.79105807  0.47851746  1.0
  C  C59  1  0.70852705  0.85427218  0.47889933  1.0
  C  C60  1  0.63272201  0.87391930  0.52533256  1.0
  C  C61  1  0.64160755  0.82970901  0.57118171  1.0
  C  C62  1  0.72461790  0.76613581  0.57050265  1.0
  C  C63  1  0.92982954  0.34367143  0.36916798  1.0
  C  C64  1  0.87345020  0.26492681  0.36382947  1.0
  C  C65  1  0.82657500  0.25049561  0.31987671  1.0
  C  C66  1  0.83776590  0.31361534  0.28022712  1.0
  C  C67  1  0.89739574  0.39065954  0.28444759  1.0
  C  C68  1  0.94275787  0.40550064  0.32868729  1.0
  C  C69  1  0.90891717  0.45957099  0.24341863  1.0
  C  C70  1  0.56655791  0.85073363  0.62129926  1.0
  C  C71  1  0.75506768  0.17196388  0.31708100  1.0
  C  C72  1  0.70024451  0.90399860  0.43043931  1.0
  C  C73  1  0.63017408  0.00210960  0.06500304  1.0
  C  C74  1  0.65087889  0.07896989  0.03769436  1.0
  C  C75  1  0.58965847  0.10247608  0.99859322  1.0
  C  C76  1  0.48969957  0.95940836  0.01405091  1.0
  C  C77  1  0.54716556  0.94116635  0.05542889  1.0
  C  C78  1  0.52261042  0.86212747  0.08432009  1.0
  C  C79  1  0.44746181  0.80210208  0.07035446  1.0
  C  C80  1  0.60943968  0.18217864  0.97008984  1.0
  C  C81  1  0.69817249  0.24628850  0.97547911  1.0
  C  C82  1  0.70713073  0.29106105  0.02148430  1.0
  C  C83  1  0.79145737  0.35426690  0.02110364  1.0
  C  C84  1  0.86727727  0.37392620  0.97466863  1.0
  C  C85  1  0.85837984  0.32970528  0.92881966  1.0
  C  C86  1  0.77538481  0.26614177  0.92949900  1.0
  C  C87  1  0.57016887  0.84367425  0.13083322  1.0
  C  C88  1  0.62654857  0.76492270  0.13617169  1.0
  C  C89  1  0.67342190  0.75049549  0.18012793  1.0
  C  C90  1  0.66223076  0.81361266  0.21977374  1.0
  C  C91  1  0.60260083  0.89066277  0.21555258  1.0
  C  C92  1  0.55724143  0.90549848  0.17131051  1.0
  C  C93  1  0.59108544  0.95957306  0.25658059  1.0
  C  C94  1  0.93344030  0.35074065  0.87870448  1.0
  C  C95  1  0.74493324  0.67196618  0.18292437  1.0
  C  C96  1  0.79973590  0.40399629  0.06956925  1.0
  O  O1  1  0.42723089  0.19510868  0.33771882  1.0
  O  O2  1  0.50296286  0.08521577  0.37481105  1.0
  O  O3  1  0.30546775  0.82480597  0.71772869  1.0
  O  O4  1  0.24365088  0.89061540  0.65071362  1.0
  O  O5  1  0.03698054  0.47089556  0.74803801  1.0
  O  O6  1  0.13551068  0.55340763  0.79582365  1.0
  O  O7  1  0.38350770  0.04213733  0.56651992  1.0
  O  O8  1  0.22848998  0.10452460  0.61174045  1.0
  O  O9  1  0.07277402  0.69510475  0.16228138  1.0
  O  O10  1  0.99703828  0.58521486  0.12518809  1.0
  O  O11  1  0.19452879  0.32481195  0.78226967  1.0
  O  O12  1  0.25633904  0.39061113  0.84928893  1.0
  O  O13  1  0.46301132  0.97089672  0.75196178  1.0
  O  O14  1  0.36448386  0.05340831  0.70417247  1.0
  O  O15  1  0.11648981  0.54214841  0.93347956  1.0
  O  O16  1  0.27151792  0.60452092  0.88825832  1.0
  O  O17  1  0.57277810  0.80489390  0.66228025  1.0
  O  O18  1  0.49704185  0.91478747  0.62518876  1.0
  O  O19  1  0.69454272  0.17518522  0.28226964  1.0
  O  O20  1  0.75635687  0.10938265  0.34928730  1.0
  O  O21  1  0.96300863  0.52910270  0.25196178  1.0
  O  O22  1  0.86448611  0.44658707  0.20417274  1.0
  O  O23  1  0.61649370  0.95785992  0.43347880  1.0
  O  O24  1  0.77151362  0.89547368  0.38825485  1.0
  O  O25  1  0.92721752  0.30489318  0.83772082  1.0
  O  O26  1  0.00294621  0.41478899  0.87481163  1.0
  O  O27  1  0.80545777  0.67518637  0.21773185  1.0
  O  O28  1  0.74364453  0.60938001  0.15071443  1.0
  O  O29  1  0.53698732  0.02910761  0.24803668  1.0
  O  O30  1  0.63551921  0.94659590  0.29582253  1.0
  O  O31  1  0.88349216  0.45786728  0.06652027  1.0
  O  O32  1  0.72849549  0.39546354  0.11174490  1.0
