# generated using pymatgen
data_H32C47(N4O)2
_symmetry_space_group_name_H-M   'P 1'
_cell_length_a   41.90700000
_cell_length_b   45.02740000
_cell_length_c   45.02740000
_cell_angle_alpha   90.00000000
_cell_angle_beta   90.00000000
_cell_angle_gamma   90.00000000
_symmetry_Int_Tables_number   1
_chemical_formula_structural   H32C47(N4O)2
_chemical_formula_sum   'H256 C376 N64 O16'
_cell_volume   84965.04912410
_cell_formula_units_Z   8
loop_
 _symmetry_equiv_pos_site_id
 _symmetry_equiv_pos_as_xyz
  1  'x, y, z'
loop_
 _atom_site_type_symbol
 _atom_site_label
 _atom_site_symmetry_multiplicity
 _atom_site_fract_x
 _atom_site_fract_y
 _atom_site_fract_z
 _atom_site_occupancy
  H  26  1  0.09759700  0.19433500  0.21121200  1
  H  27  1  0.13376400  0.16270500  0.18617800  1
  H  28  1  0.05223000  0.21346300  0.12992800  1
  H  29  1  0.08836000  0.18144000  0.10489600  1
  H  30  1  0.13883800  0.16238600  0.06540000  1
  H  31  1  0.17487100  0.19448500  0.04083500  1
  H  32  1  0.21874800  0.21412600  0.12271400  1
  H  33  1  0.18294400  0.18153100  0.14718500  1
  H  34  1  0.20095400  0.12696000  0.13111100  1
  H  35  1  0.22536900  0.09342600  0.16469900  1
  H  36  1  0.13521700  0.07340100  0.20102700  1
  H  37  1  0.11104000  0.10736500  0.16793400  1
  H  38  1  0.07065200  0.12709600  0.12093800  1
  H  39  1  0.16029500  0.10716400  0.08375300  1
  H  40  1  0.13592600  0.07241400  0.05156800  1
  H  41  1  0.04605700  0.09281200  0.08822900  1
  H  44  1  0.24294500  0.23179000  0.07673200  1
  H  45  1  0.02613700  0.22591800  0.17845900  1
  H  47  1  0.18141700  0.04892800  0.22056600  1
  H  49  1  0.08986500  0.04377600  0.03712400  1
  H  75  1  0.59596500  0.59458000  0.04227900  1
  H  76  1  0.63141500  0.62698200  0.06710400  1
  H  77  1  0.55145000  0.57467600  0.12380000  1
  H  78  1  0.58668300  0.60763600  0.14854300  1
  H  79  1  0.63626700  0.62698900  0.18791100  1
  H  80  1  0.67285700  0.59561000  0.21279500  1
  H  81  1  0.71779200  0.57660600  0.13127800  1
  H  82  1  0.68125000  0.60831800  0.10640900  1
  H  83  1  0.69870000  0.66282500  0.12279200  1
  H  84  1  0.72332400  0.69635800  0.08940400  1
  H  85  1  0.63347500  0.71613500  0.05230700  1
  H  86  1  0.60907100  0.68210200  0.08523300  1
  H  87  1  0.56835400  0.66206300  0.13265200  1
  H  88  1  0.65803900  0.68244900  0.16951600  1
  H  89  1  0.63364700  0.71713400  0.20172400  1
  H  90  1  0.54372400  0.69633800  0.16541100  1
  H  93  1  0.74442300  0.56471600  0.17979200  1
  H  94  1  0.52793100  0.55669200  0.07760300  1
  H  96  1  0.67987300  0.74098000  0.03338800  1
  H  98  1  0.58756800  0.74598500  0.21578400  1
  H  124  1  0.67565600  0.09481800  0.71126900  1
  H  125  1  0.64007500  0.12710700  0.68649700  1
  H  126  1  0.71918800  0.07399500  0.62951900  1
  H  127  1  0.68381500  0.10686100  0.60480500  1
  H  128  1  0.63353900  0.12685200  0.56537100  1
  H  129  1  0.59743800  0.09464300  0.54107000  1
  H  130  1  0.55469500  0.07441700  0.62333100  1
  H  131  1  0.59055300  0.10714900  0.64754800  1
  H  132  1  0.57191900  0.16162100  0.63137300  1
  H  133  1  0.54740800  0.19520200  0.66480100  1
  H  134  1  0.63757900  0.21624000  0.70051300  1
  H  135  1  0.66188100  0.18218400  0.66756200  1
  H  136  1  0.70248700  0.16132900  0.62019300  1
  H  137  1  0.61251600  0.18207000  0.58414000  1
  H  138  1  0.63673000  0.21673300  0.55178100  1
  H  139  1  0.72692200  0.19555600  0.58729300  1
  H  142  1  0.52995300  0.05698200  0.57747200  1
  H  143  1  0.74327300  0.05657700  0.67578100  1
  H  145  1  0.59117400  0.24034500  0.72024500  1
  H  147  1  0.68277000  0.24525700  0.53712800  1
  H  173  1  0.17350900  0.69343300  0.54181400  1
  H  174  1  0.13724600  0.66185900  0.56683000  1
  H  175  1  0.21836000  0.71305400  0.62321800  1
  H  176  1  0.18213600  0.68112500  0.64823400  1
  H  177  1  0.13191600  0.66169000  0.68786500  1
  H  178  1  0.09616300  0.69394800  0.71255200  1
  H  179  1  0.05246500  0.71423600  0.63075300  1
  H  180  1  0.08797700  0.68145800  0.60615300  1
  H  181  1  0.06945500  0.62699100  0.62198800  1
  H  182  1  0.04490500  0.59278800  0.58910500  1
  H  183  1  0.13494300  0.57185100  0.55314300  1
  H  184  1  0.15926500  0.60648800  0.58545400  1
  H  185  1  0.20007900  0.62676500  0.63222800  1
  H  186  1  0.11048100  0.60654100  0.66933200  1
  H  187  1  0.13496400  0.57188300  0.70154600  1
  H  188  1  0.22478000  0.59259200  0.66497500  1
  H  191  1  0.02833400  0.73177400  0.67683900  1
  H  192  1  0.24484000  0.72498700  0.57460500  1
  H  194  1  0.08884300  0.54288500  0.53916700  1
  H  196  1  0.18113200  0.54342400  0.71607000  1
  H  222  1  0.42487900  0.97967600  0.42794400  1
  H  223  1  0.38857500  0.95572000  0.39570800  1
  H  224  1  0.46652400  0.89698400  0.44840400  1
  H  225  1  0.43049900  0.87311000  0.41559800  1
  H  226  1  0.37980100  0.83441400  0.39527200  1
  H  227  1  0.34556100  0.81063000  0.42957400  1
  H  228  1  0.30487300  0.89337300  0.45138700  1
  H  229  1  0.33878100  0.91704300  0.41660400  1
  H  230  1  0.31868000  0.90148600  0.36209300  1
  H  231  1  0.29411100  0.93548100  0.32902200  1
  H  232  1  0.38445600  0.97023300  0.30707100  1
  H  233  1  0.40880600  0.93674000  0.34052600  1
  H  234  1  0.44923300  0.88972900  0.36101300  1
  H  235  1  0.35921000  0.85366400  0.34038400  1
  H  236  1  0.38331300  0.82229200  0.30456100  1
  H  237  1  0.47345600  0.85780800  0.32581500  1
  H  240  1  0.28811400  0.84953300  0.47808000  1
  H  241  1  0.49104000  0.94225700  0.46691800  1
  H  243  1  0.33759300  0.99343200  0.28702300  1
  H  245  1  0.43038700  0.81340000  0.27226500  1
  H  271  1  0.92432900  0.80937600  0.82680700  1
  H  272  1  0.88832300  0.83345200  0.85926100  1
  H  273  1  0.96683900  0.89181200  0.80688400  1
  H  274  1  0.93109800  0.91579100  0.83988600  1
  H  275  1  0.88083700  0.95471800  0.86036500  1
  H  276  1  0.84530800  0.97913400  0.82764400  1
  H  277  1  0.80325800  0.89687300  0.80619800  1
  H  278  1  0.83850800  0.87256600  0.83937300  1
  H  279  1  0.81932700  0.88850100  0.89408200  1
  H  280  1  0.79447400  0.85452100  0.92693100  1
  H  281  1  0.88438100  0.81809500  0.94769800  1
  H  282  1  0.90901800  0.85161400  0.91441600  1
  H  283  1  0.94984700  0.89872100  0.89431500  1
  H  284  1  0.86024900  0.93548300  0.91531500  1
  H  285  1  0.88479800  0.96671500  0.95098900  1
  H  286  1  0.97452600  0.93051500  0.92937800  1
  H  289  1  0.77953200  0.94232600  0.78748700  1
  H  290  1  0.99078500  0.84648900  0.78791500  1
  H  292  1  0.83728100  0.79556600  0.96812600  1
  H  294  1  0.93221000  0.97510100  0.98315400  1
  H  320  1  0.84579300  0.47927200  0.32427600  1
  H  321  1  0.88053900  0.45571100  0.35824800  1
  H  322  1  0.80646000  0.39613200  0.30179400  1
  H  323  1  0.84084800  0.37266000  0.33630800  1
  H  324  1  0.89117400  0.33411400  0.35803500  1
  H  325  1  0.92581000  0.31059700  0.32394300  1
  H  326  1  0.96534800  0.39372900  0.30173400  1
  H  327  1  0.93106000  0.41715500  0.33637300  1
  H  328  1  0.95129500  0.40115100  0.39092000  1
  H  329  1  0.97553300  0.43283400  0.42634900  1
  H  330  1  0.88519400  0.46694000  0.44913300  1
  H  331  1  0.86107200  0.43584500  0.41312800  1
  H  332  1  0.82059600  0.38854300  0.39090200  1
  H  333  1  0.91084400  0.35382000  0.41299900  1
  H  334  1  0.88672400  0.32253700  0.44885100  1
  H  335  1  0.79636700  0.35667400  0.42616200  1
  H  338  1  0.98315200  0.34991600  0.27561200  1
  H  339  1  0.78861600  0.43998300  0.27576300  1
  H  341  1  0.93238200  0.47585400  0.48110500  1
  H  343  1  0.83943800  0.31356700  0.48080000  1
  H  369  1  0.34711200  0.30943100  0.92674000  1
  H  370  1  0.38302900  0.33350100  0.89419900  1
  H  371  1  0.30458400  0.39185900  0.94667200  1
  H  372  1  0.34023500  0.41583300  0.91358300  1
  H  373  1  0.39049800  0.45478100  0.89297600  1
  H  374  1  0.42605300  0.47922300  0.92565100  1
  H  375  1  0.46808200  0.39697600  0.94718500  1
  H  376  1  0.43280400  0.37263700  0.91405600  1
  H  377  1  0.45196300  0.38851900  0.85935400  1
  H  378  1  0.47681800  0.35449100  0.82655200  1
  H  379  1  0.38690500  0.31807700  0.80579600  1
  H  380  1  0.36226700  0.35163900  0.83903100  1
  H  381  1  0.32139300  0.39876800  0.85921600  1
  H  382  1  0.41095100  0.43550300  0.83803400  1
  H  383  1  0.38633200  0.46671800  0.80239100  1
  H  384  1  0.29664500  0.43054400  0.82418200  1
  H  387  1  0.49190900  0.44248100  0.96572300  1
  H  388  1  0.28070000  0.34654000  0.96569800  1
  H  390  1  0.43394500  0.29566400  0.78520400  1
  H  392  1  0.33891300  0.47527000  0.77038400  1
  H  403  1  0.90739300  0.05931200  0.00455700  1
  H  404  1  0.06505900  0.00731300  0.00952000  1
  H  405  1  0.03371400  0.97670500  0.97782800  1
  H  408  1  0.92786000  0.14183100  0.03809100  1
  H  409  1  0.92633500  0.12302900  0.00367100  1
  H  410  1  0.96381400  0.13032800  0.02108500  1
  H  423  1  0.40568400  0.72930700  0.25082900  1
  H  424  1  0.56312800  0.78170600  0.24446000  1
  H  425  1  0.53204800  0.81219200  0.27647100  1
  H  428  1  0.42604600  0.64690800  0.21687600  1
  H  429  1  0.42490300  0.66559400  0.25137600  1
  H  430  1  0.46217900  0.65847200  0.23351300  1
  H  443  1  0.86511400  0.22992000  0.50341500  1
  H  444  1  0.70694200  0.28060000  0.50785000  1
  H  445  1  0.73792800  0.31105700  0.47574100  1
  H  448  1  0.84519100  0.14764900  0.53827600  1
  H  449  1  0.84610800  0.16577900  0.50347500  1
  H  450  1  0.80893500  0.15872800  0.52155100  1
  H  463  1  0.36338800  0.55963400  0.74938300  1
  H  464  1  0.20603500  0.50693300  0.74357100  1
  H  465  1  0.23738500  0.47638100  0.77530700  1
  H  468  1  0.34307000  0.64210600  0.71618400  1
  H  469  1  0.34495000  0.62298000  0.75040900  1
  H  470  1  0.30728500  0.63053600  0.73345500  1
  H  483  1  0.59493900  0.33153600  0.71194600  1
  H  484  1  0.46550500  0.25333000  0.77222500  1
  H  485  1  0.49539500  0.22198600  0.73976700  1
  H  488  1  0.59395400  0.39863300  0.77336900  1
  H  489  1  0.57818600  0.36760900  0.79243500  1
  H  490  1  0.61107500  0.36323400  0.76759200  1
  H  503  1  0.15691100  0.81782600  0.50491200  1
  H  504  1  0.31219600  0.76027000  0.49634400  1
  H  505  1  0.27977900  0.72982000  0.52783400  1
  H  508  1  0.18348900  0.90096000  0.47149700  1
  H  509  1  0.18487000  0.88328200  0.50652200  1
  H  510  1  0.22019700  0.88676400  0.48460700  1
  H  523  1  0.65709600  0.47147500  0.24986500  1
  H  524  1  0.81233000  0.52931100  0.25737900  1
  H  525  1  0.77959400  0.55973400  0.22616200  1
  H  528  1  0.68402200  0.38837000  0.28294800  1
  H  529  1  0.68499600  0.40613900  0.24795600  1
  H  530  1  0.72057500  0.40260800  0.26950900  1
  H  543  1  0.40945700  0.05824400  0.51041600  1
  H  544  1  0.56747400  0.00690400  0.50851200  1
  H  545  1  0.53452900  0.97585000  0.47830600  1
  H  548  1  0.43455100  0.14187700  0.54252000  1
  H  549  1  0.43370100  0.12397900  0.50759100  1
  H  550  1  0.47062400  0.12903500  0.52674800  1
  H  563  1  0.90842400  0.73079200  0.74482800  1
  H  564  1  0.06661600  0.78166600  0.74559900  1
  H  565  1  0.03404000  0.81278200  0.77608900  1
  H  568  1  0.93301200  0.64712100  0.71245500  1
  H  569  1  0.93258000  0.66497900  0.74740900  1
  H  570  1  0.96928100  0.65987600  0.72790100  1
  H  583  1  0.36316600  0.23122600  0.00941100  1
  H  584  1  0.20480500  0.28163100  0.00771000  1
  H  585  1  0.23743800  0.31272100  0.97725800  1
  H  588  1  0.33877400  0.14760900  0.04199800  1
  H  589  1  0.33937600  0.16533800  0.00698000  1
  H  590  1  0.30255600  0.16014800  0.02627200  1
  H  603  1  0.11437300  0.31757100  0.24944800  1
  H  604  1  0.95860900  0.26092300  0.25651700  1
  H  605  1  0.99104800  0.23050600  0.22503200  1
  H  608  1  0.08816300  0.40062700  0.28323200  1
  H  609  1  0.08698100  0.38317300  0.24808700  1
  H  610  1  0.05147200  0.38676700  0.26972900  1
  H  623  1  0.67684700  0.83219500  0.04216100  1
  H  624  1  0.80548400  0.75339200  0.98118200  1
  H  625  1  0.77546800  0.72211100  0.01360400  1
  H  628  1  0.67840300  0.89957800  0.98084200  1
  H  629  1  0.69424500  0.86867100  0.96164500  1
  H  630  1  0.66107900  0.86419100  0.98615000  1
  H  643  1  0.40843600  0.55743800  0.00893800  1
  H  644  1  0.56694400  0.50741500  0.00873000  1
  H  645  1  0.53477800  0.47633900  0.97783500  1
  H  648  1  0.43242700  0.64106300  0.04195100  1
  H  649  1  0.43240100  0.62343300  0.00687500  1
  H  650  1  0.46889300  0.62852800  0.02672300  1
  H  663  1  0.86267100  0.05763400  0.74468400  1
  H  664  1  0.70434600  0.00710800  0.74452600  1
  H  665  1  0.73656500  0.97607200  0.77540700  1
  H  668  1  0.83851900  0.14124400  0.71183700  1
  H  669  1  0.83866000  0.12350400  0.74685600  1
  H  670  1  0.80211300  0.12860500  0.72709700  1
  H  683  1  0.17750700  0.95763600  0.21203100  1
  H  684  1  0.30633100  0.03573900  0.27356000  1
  H  685  1  0.27693300  0.06706200  0.24069800  1
  H  688  1  0.17765600  0.89066800  0.27367100  1
  H  689  1  0.19335000  0.92167400  0.29281700  1
  H  690  1  0.16069200  0.92610200  0.26772100  1
  H  703  1  0.90701400  0.55965200  0.50348400  1
  H  704  1  0.06482200  0.50813700  0.50911000  1
  H  705  1  0.03392700  0.47784900  0.47676700  1
  H  708  1  0.92699400  0.64179100  0.53844100  1
  H  709  1  0.92611400  0.62358200  0.50368000  1
  H  710  1  0.96326000  0.63057100  0.52182600  1
  C  1  1  0.08811800  0.07940600  0.06572900  1
  C  2  1  0.12152400  0.08422400  0.06565100  1
  C  3  1  0.13602500  0.10498500  0.08481500  1
  C  4  1  0.11826200  0.12290200  0.10492100  1
  C  5  1  0.08489100  0.11687100  0.10567200  1
  C  6  1  0.07014700  0.09610300  0.08646000  1
  C  7  1  0.13583900  0.14466400  0.12584400  1
  C  8  1  0.15322500  0.12283100  0.14681500  1
  C  9  1  0.13531200  0.10514300  0.16701000  1
  C  10  1  0.14970900  0.08487600  0.18674900  1
  C  11  1  0.18314300  0.08025500  0.18711700  1
  C  12  1  0.20121700  0.09648000  0.16607400  1
  C  13  1  0.18659500  0.11682800  0.14634500  1
  C  14  1  0.15812400  0.16620700  0.10903400  1
  C  15  1  0.11374000  0.16626800  0.14278800  1
  C  16  1  0.11629600  0.17244900  0.17374900  1
  C  17  1  0.09518900  0.19181200  0.18873000  1
  C  18  1  0.07062700  0.20691400  0.17338000  1
  C  19  1  0.06921300  0.20270000  0.14224300  1
  C  20  1  0.09064900  0.18357800  0.12740800  1
  C  21  1  0.15605300  0.17226500  0.07802500  1
  C  22  1  0.17714200  0.19187900  0.06331500  1
  C  23  1  0.20122200  0.20740900  0.07894300  1
  C  24  1  0.20221300  0.20310500  0.11010400  1
  C  25  1  0.18093000  0.18363000  0.12464800  1
  C  42  1  0.04756700  0.22427900  0.18784500  1
  C  43  1  0.07486400  0.05791300  0.04670000  1
  C  46  1  0.19639000  0.05982800  0.20730400  1
  C  48  1  0.22384900  0.22581300  0.06501100  1
  C  50  1  0.58581700  0.70994500  0.18772700  1
  C  51  1  0.61924100  0.70525900  0.18769700  1
  C  52  1  0.63375900  0.68454900  0.16849800  1
  C  53  1  0.61601200  0.66656000  0.14844000  1
  C  54  1  0.58260300  0.67241000  0.14783100  1
  C  55  1  0.56783400  0.69313500  0.16709300  1
  C  56  1  0.63365600  0.64484500  0.12752200  1
  C  57  1  0.65111600  0.66666667  0.10661500  1
  C  58  1  0.63333200  0.68436500  0.08631500  1
  C  59  1  0.64785900  0.70467300  0.06668800  1
  C  60  1  0.68128500  0.70936500  0.06658700  1
  C  61  1  0.69920400  0.69320600  0.08778800  1
  C  62  1  0.68445200  0.67284100  0.10739500  1
  C  63  1  0.65596700  0.62338500  0.14440900  1
  C  64  1  0.61165700  0.62316500  0.11056900  1
  C  65  1  0.61414400  0.61702400  0.07959700  1
  C  66  1  0.59341000  0.59721800  0.06473000  1
  C  67  1  0.56933700  0.58150600  0.08017300  1
  C  68  1  0.56798200  0.58584500  0.11131900  1
  C  69  1  0.58890700  0.60554400  0.12602000  1
  C  70  1  0.65369100  0.61728400  0.17540000  1
  C  71  1  0.67505300  0.59807800  0.19028800  1
  C  72  1  0.69963300  0.58311600  0.17482000  1
  C  73  1  0.70080200  0.58726700  0.14367200  1
  C  74  1  0.67910000  0.60619500  0.12893400  1
  C  91  1  0.54705000  0.56290600  0.06603600  1
  C  92  1  0.57260200  0.73147900  0.20673300  1
  C  95  1  0.69472200  0.72985300  0.04657900  1
  C  97  1  0.72295200  0.56595100  0.18915600  1
  C  99  1  0.68466700  0.20936300  0.56536700  1
  C  100  1  0.65122600  0.20478600  0.56566600  1
  C  101  1  0.63681300  0.18408900  0.58495000  1
  C  102  1  0.65468400  0.16600900  0.60482900  1
  C  103  1  0.68812200  0.17175100  0.60516500  1
  C  104  1  0.70278300  0.19245000  0.58581400  1
  C  105  1  0.63715400  0.14435400  0.62589600  1
  C  106  1  0.61971100  0.16620600  0.64681000  1
  C  107  1  0.63758400  0.18421200  0.66675400  1
  C  108  1  0.62311400  0.20452700  0.68640600  1
  C  109  1  0.58964000  0.20887800  0.68691000  1
  C  110  1  0.57159500  0.19235200  0.66608500  1
  C  111  1  0.58628900  0.17196500  0.64645500  1
  C  112  1  0.61481400  0.12276100  0.60920000  1
  C  113  1  0.65931500  0.12281900  0.64286800  1
  C  114  1  0.65716800  0.11698800  0.67392300  1
  C  115  1  0.67796900  0.09723300  0.68876900  1
  C  116  1  0.70179000  0.08128000  0.67324100  1
  C  117  1  0.70283800  0.08534000  0.64204900  1
  C  118  1  0.68183700  0.10498600  0.62736700  1
  C  119  1  0.61655400  0.11682900  0.57814800  1
  C  120  1  0.59543100  0.09714100  0.56358500  1
  C  121  1  0.57165700  0.08140700  0.57940900  1
  C  122  1  0.57100500  0.08558200  0.61059200  1
  C  123  1  0.59231900  0.10513800  0.62498100  1
  C  140  1  0.72413800  0.06273800  0.68735400  1
  C  141  1  0.69779600  0.23085700  0.54626300  1
  C  144  1  0.57627900  0.22934900  0.70698700  1
  C  146  1  0.54896600  0.06296500  0.56563500  1
  C  148  1  0.18276300  0.57904900  0.68745400  1
  C  149  1  0.14933200  0.58373500  0.68747000  1
  C  150  1  0.13475900  0.60442700  0.66827300  1
  C  151  1  0.15246100  0.62243400  0.64819400  1
  C  152  1  0.18585500  0.61648600  0.64746800  1
  C  153  1  0.20067600  0.59579700  0.66666667  1
  C  154  1  0.13479900  0.64419600  0.62730700  1
  C  155  1  0.11718500  0.62242500  0.60639700  1
  C  156  1  0.13498000  0.60440700  0.58640000  1
  C  157  1  0.12050300  0.58373500  0.56713000  1
  C  158  1  0.08706600  0.57912900  0.56694100  1
  C  159  1  0.06903000  0.59594600  0.58752900  1
  C  160  1  0.08375900  0.61662000  0.60687200  1
  C  161  1  0.11265900  0.66578800  0.64423800  1
  C  162  1  0.15695500  0.66573000  0.61031200  1
  C  163  1  0.15460200  0.67171900  0.57930000  1
  C  164  1  0.17576700  0.69104500  0.56432500  1
  C  165  1  0.20021200  0.70627400  0.57971600  1
  C  166  1  0.20145200  0.70221900  0.61087900  1
  C  167  1  0.17993500  0.68316600  0.62570800  1
  C  168  1  0.11478100  0.67172600  0.67527100  1
  C  169  1  0.09386200  0.69143900  0.69006400  1
  C  170  1  0.06992600  0.70722000  0.67449800  1
  C  171  1  0.06889900  0.70303800  0.64332100  1
  C  172  1  0.09000200  0.68344600  0.62870100  1
  C  189  1  0.22336600  0.72356300  0.56527500  1
  C  190  1  0.19609300  0.55761600  0.70652100  1
  C  193  1  0.07389700  0.55761100  0.54788800  1
  C  195  1  0.04743900  0.72571800  0.68851100  1
  C  197  1  0.43115500  0.83598600  0.31201200  1
  C  198  1  0.39778400  0.83589300  0.31685800  1
  C  199  1  0.38349000  0.85454600  0.33821800  1
  C  200  1  0.40145100  0.87418300  0.35650100  1
  C  201  1  0.43483700  0.87478500  0.35050900  1
  C  202  1  0.44938800  0.85601400  0.32925900  1
  C  203  1  0.38412700  0.89511900  0.37840900  1
  C  204  1  0.36661200  0.91631300  0.35687400  1
  C  205  1  0.38448000  0.93614300  0.33873600  1
  C  206  1  0.36998200  0.95611900  0.31876600  1
  C  207  1  0.33646200  0.95701500  0.31478800  1
  C  208  1  0.31838100  0.93626700  0.33138700  1
  C  209  1  0.33310700  0.91635700  0.35151000  1
  C  210  1  0.36189700  0.87845100  0.40012100  1
  C  211  1  0.40672500  0.91168400  0.39990100  1
  C  212  1  0.40541000  0.94277900  0.40573300  1
  C  213  1  0.42667100  0.95714800  0.42543400  1
  C  214  1  0.45017800  0.94109300  0.44128400  1
  C  215  1  0.45044300  0.90989400  0.43715100  1
  C  216  1  0.42900800  0.89569900  0.41757200  1
  C  217  1  0.36337400  0.84735200  0.40587500  1
  C  218  1  0.34328400  0.83307700  0.42670200  1
  C  219  1  0.32088200  0.84922700  0.44380300  1
  C  220  1  0.32017400  0.88037500  0.43932100  1
  C  221  1  0.34029700  0.89445300  0.41850000  1
  C  238  1  0.47282800  0.95460500  0.45998400  1
  C  239  1  0.44425300  0.81818400  0.28954600  1
  C  242  1  0.32307500  0.97803500  0.29528400  1
  C  244  1  0.30043500  0.83606400  0.46482800  1
  C  246  1  0.93248500  0.95268600  0.94331000  1
  C  247  1  0.89908700  0.95298400  0.93865200  1
  C  248  1  0.88452900  0.93441100  0.91738100  1
  C  249  1  0.90223200  0.91463600  0.89902800  1
  C  250  1  0.93564200  0.91379600  0.90486000  1
  C  251  1  0.95045800  0.93248500  0.92602500  1
  C  252  1  0.88464500  0.89393500  0.87707900  1
  C  253  1  0.86702800  0.87279700  0.89860100  1
  C  254  1  0.88472400  0.85254000  0.91640600  1
  C  255  1  0.87005400  0.83255700  0.93627600  1
  C  256  1  0.83655600  0.83211700  0.94050700  1
  C  257  1  0.81870200  0.85335100  0.92432800  1
  C  258  1  0.83358900  0.87325700  0.90431800  1
  C  259  1  0.86239100  0.91086500  0.85560100  1
  C  260  1  0.90696200  0.87733000  0.85536800  1
  C  261  1  0.90528900  0.84629800  0.84930500  1
  C  262  1  0.92636900  0.83186600  0.82947400  1
  C  263  1  0.95005200  0.84780300  0.81372600  1
  C  264  1  0.95063400  0.87897100  0.81806600  1
  C  265  1  0.92937800  0.89323100  0.83776900  1
  C  266  1  0.86405700  0.94197900  0.85000000  1
  C  267  1  0.84327000  0.95661300  0.83003400  1
  C  268  1  0.81990700  0.94081800  0.81373500  1
  C  269  1  0.81924800  0.90961200  0.81775700  1
  C  270  1  0.84019700  0.89515700  0.83759000  1
  C  287  1  0.97253800  0.83421400  0.79490000  1
  C  288  1  0.94584100  0.97042600  0.96568300  1
  C  291  1  0.82293300  0.81110800  0.95987700  1
  C  293  1  0.79773900  0.95453200  0.79468000  1
  C  295  1  0.83879900  0.33558700  0.44073800  1
  C  296  1  0.87222300  0.33582600  0.43625000  1
  C  297  1  0.88652600  0.35442800  0.41486300  1
  C  298  1  0.86855500  0.37377000  0.39627000  1
  C  299  1  0.83505900  0.37389200  0.40173300  1
  C  300  1  0.82049900  0.35513700  0.42299800  1
  C  301  1  0.88593900  0.39488800  0.37456900  1
  C  302  1  0.90335100  0.41595300  0.39630700  1
  C  303  1  0.88539000  0.43521300  0.41499400  1
  C  304  1  0.89969500  0.45370100  0.43648100  1
  C  305  1  0.93311500  0.45388100  0.44101100  1
  C  306  1  0.95140000  0.43438600  0.42320000  1
  C  307  1  0.93683700  0.41576000  0.40181700  1
  C  308  1  0.90841700  0.37836100  0.35295800  1
  C  309  1  0.86343400  0.41143800  0.35299600  1
  C  310  1  0.86432700  0.44261200  0.34756200  1
  C  311  1  0.84392200  0.45676600  0.32692700  1
  C  312  1  0.82176600  0.44043400  0.30972200  1
  C  313  1  0.82159400  0.40924400  0.31392200  1
  C  314  1  0.84201500  0.39528400  0.33456300  1
  C  315  1  0.90741500  0.34721300  0.34738800  1
  C  316  1  0.92774600  0.33309000  0.32667400  1
  C  317  1  0.94993300  0.34943100  0.30951800  1
  C  318  1  0.95020300  0.38060600  0.31383800  1
  C  319  1  0.92984300  0.39454000  0.33455400  1
  C  336  1  0.80101700  0.45349700  0.28890400  1
  C  337  1  0.82570500  0.31792800  0.46331800  1
  C  340  1  0.94619600  0.47144400  0.46368600  1
  C  342  1  0.97061400  0.33639100  0.28862900  1
  C  344  1  0.33866000  0.45268400  0.81013300  1
  C  345  1  0.37206700  0.45298800  0.81474800  1
  C  346  1  0.38666800  0.43442400  0.83600600  1
  C  347  1  0.36900600  0.41465800  0.85440400  1
  C  348  1  0.33558400  0.41381200  0.84861400  1
  C  349  1  0.32072000  0.43251000  0.82748000  1
  C  350  1  0.38664000  0.39398000  0.87634600  1
  C  351  1  0.40425500  0.37283900  0.85482100  1
  C  352  1  0.38656300  0.35254700  0.83705700  1
  C  353  1  0.40123400  0.33254200  0.81720900  1
  C  354  1  0.43473400  0.33208600  0.81298700  1
  C  355  1  0.45259100  0.35332700  0.82915500  1
  C  356  1  0.43770300  0.37326100  0.84913800  1
  C  357  1  0.40890300  0.41092100  0.89781300  1
  C  358  1  0.36436400  0.37737200  0.89808800  1
  C  359  1  0.36607500  0.34634700  0.90417600  1
  C  360  1  0.34504800  0.33192000  0.92405700  1
  C  361  1  0.32139500  0.34785700  0.93984100  1
  C  362  1  0.32077500  0.37902000  0.93547400  1
  C  363  1  0.34197200  0.39327600  0.91571300  1
  C  364  1  0.40727600  0.44204800  0.90335200  1
  C  365  1  0.42807400  0.45669500  0.92329300  1
  C  366  1  0.45143300  0.44091100  0.93961200  1
  C  367  1  0.45208200  0.40970100  0.93562100  1
  C  368  1  0.43110500  0.39522800  0.91583100  1
  C  385  1  0.29895000  0.33427200  0.95870900  1
  C  386  1  0.32525600  0.47046400  0.78780000  1
  C  389  1  0.44834800  0.31107900  0.79360300  1
  C  391  1  0.47363000  0.45464700  0.95862000  1
  C  393  1  0.02816200  0.03713800  0.02218800  1
  C  394  1  0.99525500  0.04277200  0.01754400  1
  C  395  1  0.97641500  0.02425600  0.99863100  1
  C  396  1  0.98997400  0.99932900  0.98401800  1
  C  397  1  0.02288800  0.99417900  0.98833100  1
  C  398  1  0.04145300  0.01239500  0.00712200  1
  C  400  1  0.93102200  0.05505900  0.00810800  1
  C  401  1  0.94950100  0.07339700  0.02661200  1
  C  407  1  0.93888200  0.12430000  0.02491900  1
  C  413  1  0.52617300  0.75183300  0.23203600  1
  C  414  1  0.49334100  0.74610300  0.23700900  1
  C  415  1  0.47466100  0.76453600  0.25614200  1
  C  416  1  0.48830600  0.78947200  0.27067300  1
  C  417  1  0.52115000  0.79471600  0.26604000  1
  C  418  1  0.53955700  0.77657600  0.24703800  1
  C  420  1  0.42925800  0.73362600  0.24705800  1
  C  421  1  0.44758200  0.71537100  0.22833900  1
  C  427  1  0.43717600  0.66443300  0.22998000  1
  C  433  1  0.74417000  0.25131800  0.52095800  1
  C  434  1  0.77712200  0.24590100  0.51632500  1
  C  435  1  0.79574400  0.26431700  0.49712600  1
  C  436  1  0.78190800  0.28891700  0.48218600  1
  C  437  1  0.74895400  0.29384100  0.48648400  1
  C  438  1  0.73060700  0.27572300  0.50555000  1
  C  440  1  0.84145500  0.23402600  0.50694900  1
  C  441  1  0.82319000  0.21579600  0.52574200  1
  C  447  1  0.83390700  0.16489200  0.52491800  1
  C  453  1  0.24281400  0.53699300  0.73116500  1
  C  454  1  0.27566800  0.54276700  0.73598500  1
  C  455  1  0.29451400  0.52427200  0.75491800  1
  C  456  1  0.28102700  0.49923100  0.76940000  1
  C  457  1  0.24816600  0.49394300  0.76491800  1
  C  458  1  0.22959500  0.51213200  0.74609900  1
  C  460  1  0.33979600  0.55529900  0.74573000  1
  C  461  1  0.32130900  0.57363000  0.72722300  1
  C  467  1  0.33215200  0.62448200  0.72930400  1
  C  473  1  0.49414200  0.29190700  0.76720600  1
  C  474  1  0.52204000  0.30227100  0.75275500  1
  C  475  1  0.53993700  0.28348100  0.73334900  1
  C  476  1  0.53080900  0.25351900  0.72848000  1
  C  477  1  0.50289500  0.24340300  0.74285400  1
  C  478  1  0.48514400  0.26201600  0.76194200  1
  C  480  1  0.57543900  0.32378500  0.72311700  1
  C  481  1  0.55847100  0.34206900  0.74289600  1
  C  487  1  0.58864000  0.37500900  0.77145900  1
  C  493  1  0.27691300  0.79247700  0.48665200  1
  C  494  1  0.24435300  0.79944400  0.49185800  1
  C  495  1  0.22498700  0.78117300  0.51050400  1
  C  496  1  0.23765700  0.75567900  0.52463600  1
  C  497  1  0.26998900  0.74859300  0.51886600  1
  C  498  1  0.28904500  0.76646200  0.50011700  1
  C  500  1  0.18041800  0.81304200  0.50134800  1
  C  501  1  0.19944000  0.83122200  0.48316300  1
  C  507  1  0.19445400  0.88287500  0.48394300  1
  C  513  1  0.77719800  0.49701500  0.26726200  1
  C  514  1  0.74460700  0.48999900  0.26231100  1
  C  515  1  0.72504900  0.50825200  0.24382700  1
  C  516  1  0.73755100  0.53379200  0.22965100  1
  C  517  1  0.76991500  0.54093500  0.23518100  1
  C  518  1  0.78916000  0.52308100  0.25376800  1
  C  520  1  0.68062200  0.47630100  0.25327000  1
  C  521  1  0.69982900  0.45814100  0.27130600  1
  C  527  1  0.69483900  0.40649000  0.27044000  1
  C  533  1  0.53086400  0.03578900  0.52310800  1
  C  534  1  0.49784100  0.04177600  0.51967400  1
  C  535  1  0.47813800  0.02321700  0.50162100  1
  C  536  1  0.49085900  0.99823600  0.48658800  1
  C  537  1  0.52405100  0.99299300  0.48954400  1
  C  538  1  0.54358000  0.01146100  0.50722900  1
  C  540  1  0.43325000  0.05402200  0.51289000  1
  C  541  1  0.45273600  0.07273500  0.53009200  1
  C  547  1  0.44522700  0.12414300  0.52937100  1
  C  553  1  0.02978800  0.75292600  0.73120100  1
  C  554  1  0.99677700  0.74702500  0.73490500  1
  C  555  1  0.97729400  0.76561600  0.75313700  1
  C  556  1  0.99022200  0.79053400  0.76811900  1
  C  557  1  0.02340600  0.79568400  0.76491200  1
  C  558  1  0.04272100  0.77717500  0.74705400  1
  C  560  1  0.93220600  0.73495700  0.74216800  1
  C  561  1  0.95147700  0.71621500  0.72478900  1
  C  567  1  0.94387000  0.66481900  0.72552000  1
  C  573  1  0.24164500  0.25302100  0.02234900  1
  C  574  1  0.27469900  0.24721400  0.01884700  1
  C  575  1  0.29421800  0.26580000  0.00064300  1
  C  576  1  0.28128700  0.29063400  0.98552400  1
  C  577  1  0.24807100  0.29569300  0.98854900  1
  C  578  1  0.22872100  0.27720000  0.00638000  1
  C  580  1  0.33935400  0.23531900  0.01193300  1
  C  581  1  0.32005400  0.21657500  0.02928300  1
  C  587  1  0.32792600  0.16521100  0.02879500  1
  C  593  1  0.99404300  0.29285500  0.26664900  1
  C  594  1  0.02669700  0.29964800  0.26175400  1
  C  595  1  0.04608000  0.28139500  0.24311000  1
  C  596  1  0.03332600  0.25608800  0.22870900  1
  C  597  1  0.00090300  0.24915000  0.23420600  1
  C  598  1  0.98183500  0.26699500  0.25295000  1
  C  600  1  0.09080500  0.31290700  0.25281700  1
  C  601  1  0.07176900  0.33107200  0.27100400  1
  C  607  1  0.07717500  0.38269600  0.27058200  1
  C  613  1  0.77715000  0.79213100  0.98644300  1
  C  614  1  0.74938900  0.80262000  0.00102500  1
  C  615  1  0.73141100  0.78386700  0.02040100  1
  C  616  1  0.74033100  0.75382900  0.02511900  1
  C  617  1  0.76812100  0.74359100  0.01063100  1
  C  618  1  0.78595100  0.76216400  0.99156500  1
  C  620  1  0.69624700  0.82436000  0.03089700  1
  C  621  1  0.71329200  0.84261500  0.01115000  1
  C  627  1  0.68360000  0.87592200  0.98259200  1
  C  633  1  0.52982400  0.53583600  0.02311700  1
  C  634  1  0.49680800  0.54158800  0.01926300  1
  C  635  1  0.47756000  0.52301500  0.00080100  1
  C  636  1  0.49075400  0.49827400  0.98571700  1
  C  637  1  0.52395100  0.49329300  0.98907900  1
  C  638  1  0.54302700  0.51177500  0.00717500  1
  C  640  1  0.43222200  0.55337400  0.01171100  1
  C  641  1  0.45126900  0.57210900  0.02930900  1
  C  647  1  0.44347800  0.62348400  0.02885800  1
  C  653  1  0.74138800  0.03569200  0.73028600  1
  C  654  1  0.77437700  0.04153100  0.73418800  1
  C  655  1  0.79365800  0.02297600  0.75264100  1
  C  656  1  0.78052700  0.99815400  0.76763700  1
  C  657  1  0.74735300  0.99308400  0.76422100  1
  C  658  1  0.72824200  0.01154000  0.74613200  1
  C  660  1  0.83890400  0.05350700  0.74187200  1
  C  661  1  0.81981900  0.07222600  0.72429000  1
  C  667  1  0.82753300  0.12360900  0.72489600  1
  C  673  1  0.27767700  0.99720100  0.26831200  1
  C  674  1  0.24995600  0.98685400  0.25356300  1
  C  675  1  0.23235200  0.00563400  0.23391700  1
  C  676  1  0.24160400  0.03556600  0.22908000  1
  C  677  1  0.26935100  0.04566300  0.24374000  1
  C  678  1  0.28681200  0.02706100  0.26307500  1
  C  680  1  0.19688400  0.96537600  0.22339500  1
  C  681  1  0.21356500  0.94710300  0.24339400  1
  C  687  1  0.18305600  0.91427400  0.27177000  1
  C  693  1  0.02766200  0.53759200  0.52198900  1
  C  694  1  0.99478700  0.54319100  0.51708500  1
  C  695  1  0.97622000  0.52488200  0.49773700  1
  C  696  1  0.99002700  0.50021100  0.48288300  1
  C  697  1  0.02290900  0.49511200  0.48744100  1
  C  698  1  0.04120200  0.51312300  0.50666000  1
  C  700  1  0.93061600  0.55542100  0.50720000  1
  C  701  1  0.94882800  0.57355700  0.52612800  1
  C  707  1  0.93825900  0.62448400  0.52514900  1
  N  399  1  0.94517200  0.03151500  0.99478700  1
  N  402  1  0.98070800  0.06639800  0.03072500  1
  N  411  1  0.04496700  0.05559500  0.04002300  1
  N  412  1  0.97429600  0.98142000  0.96495000  1
  N  419  1  0.44348700  0.75718500  0.26027900  1
  N  422  1  0.47871800  0.72246600  0.22392800  1
  N  431  1  0.54284300  0.73340600  0.21404300  1
  N  432  1  0.47279000  0.80734800  0.28989400  1
  N  439  1  0.82704900  0.25726500  0.49332800  1
  N  442  1  0.79192300  0.22258900  0.52981000  1
  N  451  1  0.72755900  0.23290200  0.53900700  1
  N  452  1  0.79734300  0.30671800  0.46284200  1
  N  459  1  0.32570000  0.53165200  0.75891300  1
  N  462  1  0.29015900  0.56650400  0.72294800  1
  N  471  1  0.22598400  0.55540400  0.71328100  1
  N  472  1  0.29673100  0.48132000  0.78846400  1
  N  479  1  0.56566300  0.29536400  0.71926200  1
  N  482  1  0.53224300  0.33074100  0.75651200  1
  N  491  1  0.47788000  0.31042000  0.78535000  1
  N  492  1  0.54616000  0.23457000  0.71020700  1
  N  499  1  0.19384200  0.78890600  0.51430400  1
  N  502  1  0.23039100  0.82342700  0.47887700  1
  N  511  1  0.29618000  0.80783000  0.46819500  1
  N  512  1  0.21835300  0.73832300  0.54113200  1
  N  519  1  0.69389000  0.50047100  0.24024000  1
  N  522  1  0.73080200  0.46597600  0.27537000  1
  N  531  1  0.79666200  0.48171500  0.28555900  1
  N  532  1  0.71808800  0.55107500  0.21325000  1
  N  539  1  0.44663900  0.03024900  0.49923800  1
  N  542  1  0.48408000  0.06568200  0.53299500  1
  N  551  1  0.55102300  0.05302400  0.53878500  1
  N  552  1  0.47154500  0.98177700  0.46913400  1
  N  559  1  0.94579300  0.75867100  0.75575100  1
  N  562  1  0.98281800  0.72317700  0.72166000  1
  N  571  1  0.04976200  0.73563400  0.71535700  1
  N  572  1  0.97108700  0.80706400  0.78569200  1
  N  579  1  0.32575700  0.25894400  0.99820500  1
  N  582  1  0.28867000  0.22345500  0.03224200  1
  N  591  1  0.22161900  0.23577600  0.03817900  1
  N  592  1  0.30043000  0.30712600  0.96792800  1
  N  599  1  0.07731100  0.28895500  0.23958300  1
  N  602  1  0.04072400  0.32345200  0.27500800  1
  N  611  1  0.97470900  0.30816800  0.28505300  1
  N  612  1  0.05258600  0.23877000  0.21214800  1
  N  619  1  0.70582100  0.79586200  0.03461100  1
  N  622  1  0.73939000  0.83117100  0.99741900  1
  N  631  1  0.79345300  0.81060400  0.96829400  1
  N  632  1  0.72487200  0.73490800  0.04333500  1
  N  639  1  0.44603600  0.52981500  0.99805400  1
  N  642  1  0.48262900  0.56528400  0.03257400  1
  N  651  1  0.54957700  0.55315000  0.03915100  1
  N  652  1  0.47185200  0.48174600  0.96792100  1
  N  659  1  0.82514900  0.02987100  0.75545100  1
  N  662  1  0.78849200  0.06530400  0.72095400  1
  N  671  1  0.72161500  0.05296300  0.71423400  1
  N  672  1  0.79944200  0.98166200  0.78545700  1
  N  679  1  0.20677300  0.99377000  0.21958000  1
  N  682  1  0.23964000  0.95841400  0.25727200  1
  N  691  1  0.29366200  0.97868600  0.28667600  1
  N  692  1  0.22647700  0.05451300  0.21064000  1
  N  699  1  0.94499600  0.53210500  0.49369500  1
  N  702  1  0.98001100  0.56658800  0.53044800  1
  N  711  1  0.04424600  0.55594300  0.54014000  1
  N  712  1  0.97463100  0.48251000  0.46340900  1
  O  406  1  0.93629300  0.09695300  0.04121300  1
  O  426  1  0.43427400  0.69182300  0.21380700  1
  O  446  1  0.83666800  0.19255800  0.54063700  1
  O  466  1  0.33445800  0.59728000  0.71273000  1
  O  486  1  0.56682200  0.37106300  0.74713800  1
  O  506  1  0.18693800  0.85545900  0.46914500  1
  O  526  1  0.68749200  0.43386700  0.28538400  1
  O  546  1  0.44030200  0.09658200  0.54481500  1
  O  566  1  0.93883700  0.69240700  0.71015400  1
  O  586  1  0.33270600  0.19287800  0.04408800  1
  O  606  1  0.08432800  0.35513700  0.28527300  1
  O  626  1  0.70514500  0.87168200  0.00707100  1
  O  646  1  0.43840200  0.59577900  0.04399700  1
  O  666  1  0.83262300  0.09595900  0.70965600  1
  O  686  1  0.20509400  0.91813400  0.24761100  1
  O  706  1  0.93536700  0.59686500  0.54092800  1
