# generated using pymatgen
data_NiH3(C3O2)3
_symmetry_space_group_name_H-M   'P 1'
_cell_length_a   9.91596000
_cell_length_b   9.94906000
_cell_length_c   19.59592000
_cell_angle_alpha   89.90074000
_cell_angle_beta   89.94010000
_cell_angle_gamma   74.09562000
_symmetry_Int_Tables_number   1
_chemical_formula_structural   NiH3(C3O2)3
_chemical_formula_sum   'Ni4 H12 C36 O24'
_cell_volume   1859.21903808
_cell_formula_units_Z   4
loop_
 _symmetry_equiv_pos_site_id
 _symmetry_equiv_pos_as_xyz
  1  'x, y, z'
loop_
 _atom_site_type_symbol
 _atom_site_label
 _atom_site_symmetry_multiplicity
 _atom_site_fract_x
 _atom_site_fract_y
 _atom_site_fract_z
 _atom_site_occupancy
  Ni  Ni0  1  0.68358000  0.42928000  0.26873000  1
  Ni  Ni1  1  0.32319000  0.56348000  0.76904000  1
  Ni  Ni2  1  0.43673000  0.67676000  0.23111000  1
  Ni  Ni3  1  0.57042000  0.31687000  0.73143000  1
  H  H4  1  0.33299000  0.73060000  0.39322000  1
  H  H5  1  0.63905000  0.99227000  0.25077000  1
  H  H6  1  0.67259000  0.26259000  0.89435000  1
  H  H7  1  0.36953000  0.00165000  0.74956000  1
  H  H8  1  0.73682000  0.33030000  0.10758000  1
  H  H9  1  0.99855000  0.63112000  0.25044000  1
  H  H10  1  0.27027000  0.66623000  0.60753000  1
  H  H11  1  0.00773000  0.36034000  0.74925000  1
  H  H12  1  0.61428000  0.38590000  0.49989000  1
  H  H13  1  0.39214000  0.61044000  0.99954000  1
  H  H14  1  0.05647000  0.04628000  0.25052000  1
  H  H15  1  0.95324000  0.94404000  0.74946000  1
  C  C16  1  0.36497000  0.67034000  0.43981000  1
  C  C17  1  0.56407000  0.50801000  0.37664000  1
  C  C18  1  0.48249000  0.55367000  0.43990000  1
  C  C19  1  0.77909000  0.18720000  0.25363000  1
  C  C20  1  0.75213000  0.94727000  0.25075000  1
  C  C21  1  0.84158000  0.03467000  0.25110000  1
  C  C22  1  0.64038000  0.32364000  0.94045000  1
  C  C23  1  0.43955000  0.48492000  0.87770000  1
  C  C24  1  0.52241000  0.44041000  0.94061000  1
  C  C25  1  0.23064000  0.80521000  0.75223000  1
  C  C26  1  0.25631000  0.04561000  0.74940000  1
  C  C27  1  0.16753000  0.95748000  0.74958000  1
  C  C28  1  0.67698000  0.36195000  0.06100000  1
  C  C29  1  0.51490000  0.56298000  0.12242000  1
  C  C30  1  0.56054000  0.48021000  0.05980000  1
  C  C31  1  0.19552000  0.76963000  0.24768000  1
  C  C32  1  0.95466000  0.74400000  0.25055000  1
  C  C33  1  0.04308000  0.83251000  0.25040000  1
  C  C34  1  0.33039000  0.63460000  0.56087000  1
  C  C35  1  0.49259000  0.43541000  0.62348000  1
  C  C36  1  0.44704000  0.51728000  0.56040000  1
  C  C37  1  0.81224000  0.22160000  0.74648000  1
  C  C38  1  0.05261000  0.24762000  0.74925000  1
  C  C39  1  0.96488000  0.15852000  0.74900000  1
  C  C40  1  0.16615000  0.83274000  0.50119000  1
  C  C41  1  0.28983000  0.71018000  0.50047000  1
  C  C42  1  0.52335000  0.47691000  0.50006000  1
  C  C43  1  0.84868000  0.15206000  0.00149000  1
  C  C44  1  0.71564000  0.28587000  0.00094000  1
  C  C45  1  0.48287000  0.51934000  0.99996000  1
  C  C46  1  0.98733000  0.97804000  0.25073000  1
  C  C47  1  0.71451000  0.70760000  0.25065000  1
  C  C48  1  0.80903000  0.80195000  0.25063000  1
  C  C49  1  0.02153000  0.01313000  0.74933000  1
  C  C50  1  0.29227000  0.28568000  0.74936000  1
  C  C51  1  0.19834000  0.19078000  0.74931000  1
  O  O52  1  0.11304000  0.90059000  0.44804000  1
  O  O53  1  0.68671000  0.42658000  0.37762000  1
  O  O54  1  0.85154000  0.27439000  0.24222000  1
  O  O55  1  0.64910000  0.23968000  0.26898000  1
  O  O56  1  0.77286000  0.57897000  0.26258000  1
  O  O57  1  0.50694000  0.54736000  0.31741000  1
  O  O58  1  0.88039000  0.10723000  0.94250000  1
  O  O59  1  0.31733000  0.56701000  0.87887000  1
  O  O60  1  0.15891000  0.71755000  0.74036000  1
  O  O61  1  0.36012000  0.75270000  0.76821000  1
  O  O62  1  0.23345000  0.41438000  0.76121000  1
  O  O63  1  0.49495000  0.44428000  0.81822000  1
  O  O64  1  0.89251000  0.12034000  0.06069000  1
  O  O65  1  0.43371000  0.68538000  0.12119000  1
  O  O66  1  0.28447000  0.84012000  0.25966000  1
  O  O67  1  0.24840000  0.64050000  0.23151000  1
  O  O68  1  0.58504000  0.76633000  0.23872000  1
  O  O69  1  0.55399000  0.50654000  0.18202000  1
  O  O70  1  0.09974000  0.88276000  0.55526000  1
  O  O71  1  0.57359000  0.31297000  0.62242000  1
  O  O72  1  0.72337000  0.15097000  0.75804000  1
  O  O73  1  0.75967000  0.35127000  0.73094000  1
  O  O74  1  0.42162000  0.22742000  0.73734000  1
  O  O75  1  0.45320000  0.49207000  0.68285000  1
