# generated using pymatgen
data_H11(C4N)4
_symmetry_space_group_name_H-M   'P 1'
_cell_length_a   30.94010000
_cell_length_b   38.52330000
_cell_length_c   38.52330000
_cell_angle_alpha   90.00000000
_cell_angle_beta   90.00000000
_cell_angle_gamma   90.00000000
_symmetry_Int_Tables_number   1
_chemical_formula_structural   H11(C4N)4
_chemical_formula_sum   'H176 C256 N64'
_cell_volume   45916.48965548
_cell_formula_units_Z   16
loop_
 _symmetry_equiv_pos_site_id
 _symmetry_equiv_pos_as_xyz
  1  'x, y, z'
loop_
 _atom_site_type_symbol
 _atom_site_label
 _atom_site_symmetry_multiplicity
 _atom_site_fract_x
 _atom_site_fract_y
 _atom_site_fract_z
 _atom_site_occupancy
  H  2  1  0.01291400  0.15534300  0.48412300  1
  H  7  1  0.07324600  0.06490200  0.55292300  1
  H  11  1  0.01920800  0.16715800  0.57697000  1
  H  16  1  0.09005300  0.16332600  0.50665200  1
  H  17  1  0.02450700  0.20712000  0.59878000  1
  H  19  1  0.22691800  0.18603400  0.54385800  1
  H  20  1  0.23910800  0.18862300  0.58857600  1
  H  21  1  0.22594400  0.22684200  0.56478300  1
  H  23  1  0.02740300  0.84644100  0.57427300  1
  H  27  1  0.06944800  0.99380900  0.55300800  1
  H  30  1  0.01632100  0.89127400  0.57214200  1
  H  35  1  0.10980900  0.94215200  0.52625800  1
  H  36  1  0.23538800  0.85951600  0.57459500  1
  H  38  1  0.23045000  0.90434100  0.56554600  1
  H  39  1  0.03395200  0.16764800  0.62125300  1
  H  43  1  0.15017600  0.24453200  0.64686300  1
  H  46  1  0.19228000  0.21466400  0.69796500  1
  H  52  1  0.18997600  0.21446900  0.75898200  1
  H  54  1  0.25141100  0.78096600  0.61163000  1
  H  59  1  0.02635300  0.87202300  0.61250200  1
  H  61  1  0.15237900  0.80591000  0.62649400  1
  H  62  1  0.23315200  0.89020900  0.60911200  1
  H  67  1  0.18910800  0.84935900  0.70122500  1
  H  70  1  0.19139800  0.84933800  0.76224800  1
  H  75  1  0.07224200  0.06769100  0.90866600  1
  H  78  1  0.11564400  0.11828600  0.93694700  1
  H  83  1  0.03973700  0.20107700  0.92091300  1
  H  84  1  0.02641800  0.17758000  0.88254100  1
  H  87  1  0.23164400  0.14564400  0.86045600  1
  H  88  1  0.24615500  0.18998100  0.86047700  1
  H  89  1  0.24121300  0.16763600  0.90018000  1
  H  92  1  0.03851600  0.22232700  0.88029100  1
  H  97  1  0.25168800  0.28339200  0.84881100  1
  H  98  1  0.17515800  0.26011800  0.85783900  1
  H  100  1  0.25758800  0.77831300  0.84875900  1
  H  101  1  0.03042900  0.85902000  0.85694600  1
  H  105  1  0.15023200  0.82358500  0.81400300  1
  H  107  1  0.02594900  0.90321700  0.86860900  1
  H  108  1  0.02802300  0.87053800  0.90129600  1
  H  109  1  0.07222700  0.99645900  0.90840300  1
  H  117  1  0.11436200  0.94010900  0.93983100  1
  H  120  1  0.24389600  0.87513800  0.85726000  1
  H  122  1  0.23261200  0.91662400  0.87346400  1
  H  124  1  0.23721200  0.88100400  0.90235300  1
  H  125  1  0.27342200  0.36497900  0.57422100  1
  H  129  1  0.48129500  0.35094300  0.57272100  1
  H  132  1  0.49268700  0.39577100  0.57152400  1
  H  134  1  0.27857700  0.40989700  0.56568900  1
  H  139  1  0.43996900  0.49888000  0.55298700  1
  H  144  1  0.39944000  0.44757300  0.52638500  1
  H  148  1  0.43625300  0.55978800  0.55294800  1
  H  151  1  0.28370400  0.72171100  0.56483500  1
  H  152  1  0.28272400  0.68090200  0.54392000  1
  H  153  1  0.27051700  0.68350100  0.58863100  1
  H  155  1  0.49673100  0.65023200  0.48425500  1
  H  160  1  0.49042500  0.66203800  0.57702200  1
  H  161  1  0.48511800  0.70202700  0.59878600  1
  H  165  1  0.41952700  0.65822000  0.50673200  1
  H  166  1  0.25839500  0.28607900  0.61168700  1
  H  167  1  0.27606700  0.39523400  0.60909100  1
  H  173  1  0.32030700  0.35455900  0.70139900  1
  H  176  1  0.31787500  0.35453100  0.76240900  1
  H  177  1  0.48266800  0.37570000  0.61148200  1
  H  179  1  0.35500900  0.30962600  0.62315800  1
  H  182  1  0.31725100  0.70952900  0.69801100  1
  H  187  1  0.31943100  0.70934700  0.75903200  1
  H  189  1  0.47573900  0.66257800  0.62131500  1
  H  192  1  0.35946200  0.73943000  0.64689900  1
  H  195  1  0.26541700  0.38021400  0.85746000  1
  H  199  1  0.27216100  0.38609400  0.90254500  1
  H  200  1  0.47889000  0.36408100  0.85701100  1
  H  203  1  0.35903900  0.32866600  0.81412000  1
  H  205  1  0.48133000  0.37559300  0.90136100  1
  H  207  1  0.27672600  0.42170600  0.87364300  1
  H  208  1  0.48338900  0.40827500  0.86867900  1
  H  214  1  0.50298500  0.41323000  0.97678300  1
  H  215  1  0.43710600  0.50152500  0.90849200  1
  H  218  1  0.39503800  0.44515400  0.93996100  1
  H  224  1  0.43706700  0.56257400  0.90873600  1
  H  228  1  0.27766000  0.64058400  0.86052600  1
  H  229  1  0.26318300  0.68492800  0.86056200  1
  H  232  1  0.33420100  0.75505200  0.85782400  1
  H  233  1  0.26818000  0.66258100  0.90026000  1
  H  239  1  0.39369900  0.61326000  0.93700400  1
  H  245  1  0.46964000  0.69598100  0.92091500  1
  H  246  1  0.47083900  0.71725400  0.88030400  1
  H  247  1  0.48293000  0.67250500  0.88252300  1
  H  248  1  0.50133600  0.65040400  0.97915300  1
  H  251  1  0.53466500  0.36765300  0.04520700  1
  H  252  1  0.53345000  0.34638000  0.08581900  1
  H  255  1  0.52135900  0.39113200  0.08359500  1
  H  256  1  0.74665200  0.28531000  0.11732000  1
  H  257  1  0.74110000  0.37871400  0.10560800  1
  H  259  1  0.67008200  0.30858700  0.10830600  1
  H  262  1  0.73611600  0.40105100  0.06590500  1
  H  267  1  0.68491400  0.35422700  0.20714100  1
  H  268  1  0.56724100  0.50106000  0.05739100  1
  H  273  1  0.61060900  0.45037200  0.02912900  1
  H  279  1  0.56720900  0.56210900  0.05763100  1
  H  280  1  0.72662700  0.42305800  0.10563200  1
  H  283  1  0.60929700  0.61843400  0.02616500  1
  H  288  1  0.52304900  0.68806900  0.06470400  1
  H  289  1  0.52549300  0.69961000  0.10904600  1
  H  290  1  0.52096500  0.65541100  0.09740800  1
  H  295  1  0.64536300  0.73499200  0.15192800  1
  H  298  1  0.72761200  0.64187400  0.09249300  1
  H  299  1  0.73895700  0.68337900  0.10862300  1
  H  300  1  0.73221200  0.67744500  0.06354700  1
  H  301  1  0.68649400  0.70905100  0.20363800  1
  H  306  1  0.51937800  0.36147500  0.36737200  1
  H  310  1  0.64503000  0.32405300  0.31929000  1
  H  313  1  0.52876400  0.40092100  0.34484300  1
  H  315  1  0.51406400  0.40146400  0.38913300  1
  H  322  1  0.68716600  0.35400700  0.26816000  1
  H  324  1  0.73397300  0.38000100  0.37754600  1
  H  326  1  0.72078600  0.34178500  0.40133600  1
  H  327  1  0.52181800  0.68843300  0.35515900  1
  H  332  1  0.65015300  0.75441900  0.34430600  1
  H  335  1  0.51184700  0.66803500  0.39495300  1
  H  336  1  0.52339500  0.71284900  0.39413300  1
  H  343  1  0.68397600  0.70901800  0.26464000  1
  H  345  1  0.72834900  0.66835900  0.35696600  1
  H  349  1  0.74576000  0.77749800  0.35441400  1
  H  351  1  0.73119000  0.69839600  0.39201200  1
  H  352  1  0.72595800  0.65343300  0.40028500  1
  H  355  1  0.58495600  0.40529000  0.45943600  1
  H  356  1  0.72176600  0.38259200  0.42225900  1
  H  360  1  0.50776200  0.41326400  0.48193700  1
  H  361  1  0.56819800  0.50371100  0.41321000  1
  H  367  1  0.56448800  0.56461900  0.41317600  1
  H  370  1  0.60505300  0.61584300  0.43971800  1
  H  374  1  0.77167800  0.14698300  0.09251700  1
  H  375  1  0.76036900  0.18846400  0.10872100  1
  H  376  1  0.76709200  0.18260500  0.06363200  1
  H  381  1  0.93208500  0.06716000  0.05766500  1
  H  383  1  0.88997100  0.12357100  0.02616900  1
  H  388  1  0.97628000  0.19308400  0.06480400  1
  H  389  1  0.97832900  0.16040000  0.09748500  1
  H  391  1  0.97384000  0.20459500  0.10915300  1
  H  394  1  0.81280300  0.21415800  0.20373800  1
  H  399  1  0.85398900  0.24000300  0.15205700  1
  H  400  1  0.75272900  0.78023200  0.11729700  1
  H  401  1  0.75822300  0.87356500  0.10561000  1
  H  403  1  0.82931900  0.80349300  0.10834400  1
  H  406  1  0.77267400  0.91791500  0.10558100  1
  H  407  1  0.76316800  0.89586300  0.06588100  1
  H  411  1  0.81440900  0.84909900  0.20718500  1
  H  414  1  0.96470600  0.86257900  0.04529500  1
  H  415  1  0.96592400  0.84138200  0.08594700  1
  H  418  1  0.93207500  0.99592700  0.05740700  1
  H  422  1  0.97796400  0.88613900  0.08364400  1
  H  424  1  0.88869100  0.94528200  0.02912500  1
  H  428  1  0.77100900  0.17341300  0.35706700  1
  H  430  1  0.76857200  0.20386500  0.39178100  1
  H  431  1  0.77360400  0.15898500  0.40054200  1
  H  432  1  0.97772100  0.19234200  0.35423500  1
  H  435  1  0.98773100  0.17259500  0.39435600  1
  H  440  1  0.81519100  0.21411300  0.26475100  1
  H  445  1  0.75318400  0.28255100  0.35444500  1
  H  449  1  0.85068600  0.25852600  0.34173900  1
  H  450  1  0.97648400  0.21743200  0.39278600  1
  H  455  1  0.81205000  0.84888400  0.26820100  1
  H  457  1  0.76511400  0.87493000  0.37756600  1
  H  461  1  0.77825900  0.83671400  0.40137300  1
  H  462  1  0.97969600  0.85637800  0.36746100  1
  H  465  1  0.85407600  0.81898000  0.31934400  1
  H  468  1  0.97032000  0.89584500  0.34496300  1
  H  469  1  0.98501900  0.89634600  0.38925300  1
  H  476  1  0.93476800  0.06972900  0.41318600  1
  H  478  1  0.89435100  0.12125400  0.43986400  1
  H  480  1  0.77727900  0.87752600  0.42228700  1
  H  483  1  0.93098900  0.99863700  0.41326200  1
  H  487  1  0.99126100  0.90819600  0.48210600  1
  H  490  1  0.91410800  0.90025300  0.45954000  1
  H  494  1  0.99787700  0.15548500  0.97918100  1
  H  496  1  0.99627700  0.90813400  0.97672600  1
  C  1  1  0.01200800  0.12874800  0.48364800  1
  C  3  1  0.05329200  0.01685300  0.53380700  1
  C  4  1  0.03607500  0.11009300  0.50865800  1
  C  5  1  0.03314300  0.07322000  0.50884800  1
  C  6  1  0.05523900  0.05321500  0.53395500  1
  C  9  1  0.03790800  0.18101400  0.59647800  1
  C  10  1  0.08445800  0.18328000  0.58797700  1
  C  12  1  0.17267900  0.19461400  0.57706900  1
  C  14  1  0.10488000  0.16938000  0.55804900  1
  C  15  1  0.08419100  0.15368100  0.53014700  1
  C  18  1  0.21877300  0.19930500  0.56804600  1
  C  22  1  0.03565400  0.87174000  0.58516500  1
  C  25  1  0.02855700  0.95140900  0.50751400  1
  C  26  1  0.02977000  0.98839700  0.50822000  1
  C  29  1  0.08288400  0.87726400  0.58229700  1
  C  31  1  0.17321000  0.88006700  0.58474200  1
  C  33  1  0.10522400  0.90245600  0.56197400  1
  C  34  1  0.08873500  0.92683100  0.53841700  1
  C  37  1  0.22075600  0.88373800  0.58340000  1
  C  41  1  0.15225700  0.20910400  0.60682000  1
  C  42  1  0.17034200  0.23166000  0.63134800  1
  C  44  1  0.20779100  0.23343600  0.74710900  1
  C  45  1  0.20885100  0.23372700  0.71071800  1
  C  48  1  0.25503600  0.28416600  0.74892900  1
  C  49  1  0.25585200  0.28453700  0.71166500  1
  C  50  1  0.23204200  0.25933500  0.69222800  1
  C  51  1  0.23235900  0.26020100  0.65521900  1
  C  53  1  0.23032100  0.25849600  0.76689700  1
  C  55  1  0.25430800  0.77899600  0.74887700  1
  C  56  1  0.25355300  0.77935400  0.71161300  1
  C  57  1  0.25172400  0.78023200  0.63824800  1
  C  58  1  0.15094600  0.85447200  0.60429400  1
  C  60  1  0.16932000  0.82774300  0.62383300  1
  C  63  1  0.20770100  0.83006600  0.74962200  1
  C  64  1  0.22743800  0.80511500  0.65672500  1
  C  65  1  0.22903500  0.80509700  0.69360900  1
  C  66  1  0.20661400  0.83028500  0.71322800  1
  C  69  1  0.23069600  0.80438900  0.76822900  1
  C  71  1  0.03313200  0.11134300  0.95386200  1
  C  72  1  0.03227500  0.07435600  0.95308800  1
  C  73  1  0.05518100  0.05532400  0.92770100  1
  C  74  1  0.05506400  0.01891500  0.92747000  1
  C  77  1  0.09551400  0.13428600  0.92465900  1
  C  80  1  0.11344800  0.15917600  0.90242000  1
  C  81  1  0.09286500  0.18910200  0.88841800  1
  C  82  1  0.04677500  0.19803800  0.89332900  1
  C  85  1  0.22764400  0.17022900  0.87415900  1
  C  86  1  0.18106900  0.17855100  0.87671400  1
  C  90  1  0.16047000  0.20859800  0.86325700  1
  C  94  1  0.18093900  0.23674800  0.84786400  1
  C  95  1  0.22811600  0.25865100  0.80379700  1
  C  96  1  0.25224900  0.28381000  0.82221100  1
  C  99  1  0.25704700  0.77870500  0.82216000  1
  C  103  1  0.15540200  0.85995000  0.85305000  1
  C  104  1  0.17148800  0.83568100  0.82920500  1
  C  106  1  0.04039500  0.87845300  0.87598200  1
  C  110  1  0.03235400  0.95256400  0.95265200  1
  C  111  1  0.03188200  0.98952600  0.95254300  1
  C  114  1  0.11085600  0.90485000  0.89958300  1
  C  115  1  0.08797600  0.88183500  0.87737300  1
  C  116  1  0.09374000  0.92760700  0.92440400  1
  C  118  1  0.23125300  0.80373400  0.80524300  1
  C  121  1  0.17832200  0.88346800  0.87486800  1
  C  123  1  0.22560300  0.88905400  0.87684100  1
  C  126  1  0.33578800  0.38517500  0.58434200  1
  C  127  1  0.28825500  0.38904000  0.58325000  1
  C  128  1  0.47326600  0.37604300  0.58416600  1
  C  131  1  0.42606800  0.38184900  0.58153100  1
  C  133  1  0.35793000  0.35914400  0.60337500  1
  C  135  1  0.50145900  0.55037900  0.48326100  1
  C  136  1  0.50300100  0.51311800  0.48290000  1
  C  137  1  0.47958800  0.49346200  0.50816500  1
  C  138  1  0.48072200  0.45647200  0.50741000  1
  C  142  1  0.40384800  0.40747000  0.56165500  1
  C  143  1  0.42043800  0.43201900  0.53832900  1
  C  145  1  0.47634600  0.56810300  0.50886300  1
  C  146  1  0.45422900  0.54809900  0.53396300  1
  C  147  1  0.45611700  0.51173700  0.53377800  1
  C  149  1  0.33695400  0.68947400  0.57714400  1
  C  150  1  0.29086400  0.69417500  0.56810800  1
  C  154  1  0.49756800  0.62363800  0.48372500  1
  C  156  1  0.47346600  0.60497700  0.50870800  1
  C  158  1  0.47173700  0.67591000  0.59652700  1
  C  159  1  0.42517600  0.67813800  0.58806000  1
  C  163  1  0.40474000  0.66422400  0.55814800  1
  C  164  1  0.42540600  0.64856300  0.53022200  1
  C  168  1  0.30160500  0.33525700  0.74975400  1
  C  169  1  0.25797200  0.28536000  0.63829900  1
  C  170  1  0.28213700  0.31029500  0.65682600  1
  C  171  1  0.28039000  0.31029500  0.69370200  1
  C  172  1  0.30276700  0.33548300  0.71336600  1
  C  175  1  0.27860300  0.30955800  0.76831900  1
  C  178  1  0.33925600  0.33216500  0.62231200  1
  C  180  1  0.30161000  0.72829400  0.74713000  1
  C  181  1  0.30061400  0.72857200  0.71073900  1
  C  184  1  0.33930100  0.72653200  0.63140500  1
  C  185  1  0.27744400  0.75416700  0.69222000  1
  C  186  1  0.27726700  0.75506500  0.65521600  1
  C  188  1  0.27902900  0.75335400  0.76688100  1
  C  191  1  0.35738400  0.70396600  0.60689000  1
  C  193  1  0.27798100  0.30889600  0.80533100  1
  C  196  1  0.33779800  0.34076500  0.82933700  1
  C  197  1  0.33101700  0.38854700  0.87500800  1
  C  198  1  0.28373700  0.39413500  0.87701700  1
  C  202  1  0.35391300  0.36502600  0.85318000  1
  C  204  1  0.46894200  0.38351100  0.87605400  1
  C  206  1  0.42136300  0.38690100  0.87746600  1
  C  210  1  0.39850900  0.40991000  0.89969700  1
  C  211  1  0.47751300  0.49461200  0.95259500  1
  C  212  1  0.47702800  0.45765000  0.95272700  1
  C  213  1  0.50266500  0.43986900  0.97721100  1
  C  217  1  0.41564800  0.43265500  0.92451800  1
  C  219  1  0.50225800  0.51318000  0.97785200  1
  C  220  1  0.45430000  0.51380900  0.92753000  1
  C  221  1  0.50206400  0.55045400  0.97808300  1
  C  222  1  0.47709900  0.56926300  0.95311400  1
  C  223  1  0.45417100  0.55021800  0.92775300  1
  C  226  1  0.28170400  0.66516600  0.87422200  1
  C  227  1  0.32828900  0.67346800  0.87671900  1
  C  230  1  0.32838900  0.73167400  0.84788200  1
  C  231  1  0.28121900  0.75354400  0.80378100  1
  C  235  1  0.34887400  0.70353000  0.86328000  1
  C  236  1  0.47620700  0.60625100  0.95388800  1
  C  238  1  0.41384800  0.62920600  0.92466900  1
  C  240  1  0.50165000  0.62376500  0.97872500  1
  C  242  1  0.39592600  0.65408700  0.90240500  1
  C  243  1  0.41648900  0.68403500  0.88843400  1
  C  244  1  0.46258400  0.69296000  0.89333200  1
  C  249  1  0.58780400  0.37960400  0.07770200  1
  C  250  1  0.54171100  0.37067700  0.07279200  1
  C  254  1  0.65540800  0.36011200  0.10287300  1
  C  258  1  0.67588700  0.33196000  0.11826200  1
  C  260  1  0.72258300  0.39847100  0.09194000  1
  C  261  1  0.67600000  0.39017200  0.08943700  1
  C  263  1  0.72527200  0.31021000  0.19923200  1
  C  264  1  0.72307800  0.31005900  0.16233100  1
  C  265  1  0.74721500  0.28490000  0.14391900  1
  C  271  1  0.60837200  0.40955200  0.06373400  1
  C  272  1  0.59045700  0.43442800  0.04146400  1
  C  274  1  0.52810800  0.45738300  0.01223300  1
  C  275  1  0.52721900  0.49437100  0.01300600  1
  C  276  1  0.55014700  0.51341700  0.03836800  1
  C  277  1  0.52681100  0.56902200  0.01352200  1
  C  278  1  0.55002100  0.54982600  0.03858900  1
  C  281  1  0.52729600  0.60598400  0.01338600  1
  C  285  1  0.60584800  0.65371300  0.06639900  1
  C  286  1  0.58300400  0.67675100  0.08861000  1
  C  287  1  0.53542800  0.68016200  0.09001700  1
  C  292  1  0.65047000  0.69861100  0.11288900  1
  C  293  1  0.58869200  0.63095600  0.04159500  1
  C  294  1  0.66659800  0.72287400  0.13672200  1
  C  296  1  0.72062500  0.66944200  0.08908200  1
  C  297  1  0.67335300  0.67505900  0.09108000  1
  C  303  1  0.72642300  0.75469900  0.16075700  1
  C  304  1  0.72578600  0.75401900  0.19776600  1
  C  305  1  0.75217000  0.77979300  0.14389600  1
  C  308  1  0.64711500  0.35953300  0.35928400  1
  C  309  1  0.66519800  0.33696200  0.33477100  1
  C  311  1  0.53275800  0.38759100  0.36963100  1
  C  312  1  0.57931900  0.38536400  0.37810600  1
  C  314  1  0.66753800  0.37402600  0.38903200  1
  C  316  1  0.74998100  0.28453400  0.21720300  1
  C  317  1  0.70272900  0.33526200  0.21901600  1
  C  318  1  0.75077700  0.28415300  0.25446600  1
  C  319  1  0.70376300  0.33495800  0.25540800  1
  C  320  1  0.72694300  0.30934500  0.27389700  1
  C  321  1  0.72720500  0.30844700  0.31090300  1
  C  325  1  0.71362700  0.36932200  0.39806800  1
  C  329  1  0.64663000  0.70456800  0.36312300  1
  C  330  1  0.66874100  0.67835300  0.38191700  1
  C  331  1  0.66540800  0.73164800  0.34442300  1
  C  333  1  0.53130100  0.68783300  0.38245200  1
  C  334  1  0.57848600  0.68189600  0.38494900  1
  C  338  1  0.60067400  0.65608600  0.40460400  1
  C  339  1  0.70276400  0.72831500  0.21630900  1
  C  340  1  0.70155600  0.72808700  0.25269300  1
  C  341  1  0.74933800  0.77940400  0.21717900  1
  C  342  1  0.74847900  0.77902200  0.25444200  1
  C  346  1  0.74620300  0.77822800  0.32780200  1
  C  347  1  0.72205300  0.75329000  0.30925700  1
  C  348  1  0.72391200  0.75326600  0.27238300  1
  C  350  1  0.71626800  0.67441300  0.38287500  1
  C  354  1  0.59974900  0.39928000  0.40802100  1
  C  357  1  0.50689900  0.43986100  0.48244600  1
  C  358  1  0.53098700  0.45852000  0.45745300  1
  C  359  1  0.52811100  0.49539400  0.45729500  1
  C  363  1  0.57907400  0.41493800  0.43594700  1
  C  364  1  0.52487900  0.57003700  0.45800300  1
  C  365  1  0.54834700  0.55176200  0.43238500  1
  C  366  1  0.55022400  0.51540000  0.43219800  1
  C  368  1  0.52376000  0.60702700  0.45876900  1
  C  371  1  0.58406400  0.63146500  0.42784800  1
  C  372  1  0.77868200  0.17455300  0.08915000  1
  C  373  1  0.82596000  0.18014900  0.09114700  1
  C  377  1  0.97244400  0.07409200  0.01353300  1
  C  378  1  0.97194900  0.11105300  0.01341300  1
  C  379  1  0.94926000  0.05488600  0.03860800  1
  C  380  1  0.94914000  0.01847600  0.03837400  1
  C  385  1  0.89344900  0.15877700  0.06646400  1
  C  386  1  0.91630900  0.18178600  0.08869200  1
  C  387  1  0.96388800  0.18516800  0.09010900  1
  C  390  1  0.91058200  0.13603900  0.04163600  1
  C  393  1  0.84886000  0.20366400  0.11298100  1
  C  396  1  0.83275100  0.22791700  0.13683000  1
  C  397  1  0.77293900  0.25980900  0.16080600  1
  C  398  1  0.77355300  0.25914200  0.19781800  1
  C  402  1  0.82349100  0.82686300  0.11829700  1
  C  404  1  0.77672000  0.89331700  0.09191300  1
  C  405  1  0.82330700  0.88503300  0.08939500  1
  C  408  1  0.77406700  0.80507900  0.19923300  1
  C  409  1  0.77630000  0.80493900  0.16233400  1
  C  412  1  0.91153600  0.87454900  0.07775000  1
  C  413  1  0.95764100  0.86564800  0.07287100  1
  C  417  1  0.84393700  0.85502000  0.10289700  1
  C  421  1  0.89092500  0.90444000  0.06370100  1
  C  423  1  0.90883700  0.92931000  0.04143200  1
  C  425  1  0.97205200  0.98926400  0.01299100  1
  C  426  1  0.97117700  0.95227600  0.01220800  1
  C  427  1  0.83084100  0.18348600  0.38163900  1
  C  429  1  0.78330100  0.17972600  0.38285100  1
  C  433  1  0.96835500  0.19225200  0.38156100  1
  C  434  1  0.92114100  0.18657100  0.38428400  1
  C  437  1  0.89886600  0.16112700  0.40434500  1
  C  438  1  0.79653600  0.23343500  0.21638900  1
  C  439  1  0.79767700  0.23320000  0.25277700  1
  C  442  1  0.75279300  0.28328100  0.32783300  1
  C  443  1  0.77698200  0.25836000  0.30931400  1
  C  444  1  0.77529500  0.25838500  0.27243500  1
  C  447  1  0.85304200  0.20933200  0.36239100  1
  C  448  1  0.83448700  0.23622600  0.34323100  1
  C  451  1  0.79658400  0.83012900  0.21904200  1
  C  452  1  0.79548900  0.82982500  0.25543300  1
  C  453  1  0.77226600  0.80422000  0.27390200  1
  C  454  1  0.77191100  0.80334200  0.31090800  1
  C  458  1  0.83389500  0.83187100  0.33483400  1
  C  459  1  0.83153600  0.86893600  0.38909700  1
  C  460  1  0.78543700  0.86425100  0.39810500  1
  C  464  1  0.85196900  0.85443400  0.35935900  1
  C  466  1  0.96632200  0.88249400  0.36974000  1
  C  467  1  0.91976100  0.88027000  0.37821000  1
  C  470  1  0.99621500  0.01823200  0.48293100  1
  C  471  1  0.94899500  0.02050800  0.43222900  1
  C  472  1  0.99782200  0.05549200  0.48326100  1
  C  473  1  0.97443400  0.07514500  0.45798300  1
  C  474  1  0.97559200  0.11213500  0.45872000  1
  C  475  1  0.95092500  0.05687000  0.43238800  1
  C  479  1  0.91540100  0.13666600  0.42779000  1
  C  482  1  0.89932800  0.89416800  0.40813700  1
  C  484  1  0.97108300  0.99032000  0.45734100  1
  C  485  1  0.96814200  0.95344600  0.45753300  1
  C  486  1  0.99218200  0.93479000  0.48256300  1
  C  489  1  0.92000700  0.90987300  0.43604300  1
  C  491  1  0.99716500  0.05553700  0.97807000  1
  C  492  1  0.99755700  0.12884600  0.97873800  1
  C  493  1  0.99698100  0.01826400  0.97782900  1
  C  495  1  0.99659000  0.93477200  0.97716400  1
  N  8  1  0.05881700  0.12727400  0.53301800  1
  N  13  1  0.14778400  0.17620400  0.55438100  1
  N  24  1  0.10709700  0.85483100  0.60159400  1
  N  28  1  0.04870200  0.93021900  0.52994900  1
  N  32  1  0.14914900  0.90198900  0.56483700  1
  N  40  1  0.10921700  0.20234900  0.61016800  1
  N  47  1  0.21101900  0.23827700  0.63424200  1
  N  68  1  0.20673600  0.82956000  0.63841900  1
  N  76  1  0.05499300  0.13200700  0.93200500  1
  N  79  1  0.15647500  0.15602100  0.89552000  1
  N  91  1  0.11760300  0.21209600  0.87027100  1
  N  93  1  0.20576200  0.23418400  0.82110600  1
  N  102  1  0.11150800  0.86103000  0.85590300  1
  N  112  1  0.05305000  0.93267200  0.92942500  1
  N  113  1  0.15470500  0.90396500  0.89663900  1
  N  119  1  0.21137600  0.82663200  0.82613400  1
  N  130  1  0.40176000  0.35922900  0.60053800  1
  N  140  1  0.46044800  0.43523000  0.52972400  1
  N  141  1  0.35993400  0.40724400  0.56467400  1
  N  157  1  0.45076100  0.62214800  0.53308500  1
  N  162  1  0.36184400  0.67105900  0.55445900  1
  N  174  1  0.30311100  0.33476600  0.63873300  1
  N  183  1  0.29862100  0.73312500  0.63427800  1
  N  190  1  0.40042500  0.69722000  0.61024100  1
  N  194  1  0.29789600  0.33175500  0.82624500  1
  N  201  1  0.39780700  0.36610100  0.85600700  1
  N  209  1  0.35465600  0.40903300  0.89677400  1
  N  216  1  0.45634000  0.43774500  0.92950500  1
  N  225  1  0.30356600  0.72909600  0.82112600  1
  N  234  1  0.39174400  0.70702900  0.87029100  1
  N  237  1  0.45437200  0.62690400  0.93200000  1
  N  241  1  0.35289200  0.65094100  0.89552600  1
  N  253  1  0.61254200  0.35661000  0.09585100  1
  N  266  1  0.70072200  0.33452200  0.14501400  1
  N  269  1  0.54993400  0.43673300  0.03412700  1
  N  270  1  0.65140400  0.41269800  0.07062300  1
  N  282  1  0.54799800  0.62589100  0.03660000  1
  N  284  1  0.64969700  0.65457000  0.06932700  1
  N  291  1  0.60657500  0.69755400  0.11005800  1
  N  302  1  0.70650700  0.73185100  0.13982900  1
  N  307  1  0.60407400  0.36628000  0.35593000  1
  N  323  1  0.70588000  0.33038700  0.33186400  1
  N  328  1  0.60281300  0.70459400  0.36605400  1
  N  337  1  0.64458100  0.65621600  0.40149500  1
  N  344  1  0.70099300  0.72880300  0.32726700  1
  N  353  1  0.64264500  0.39244300  0.41171200  1
  N  362  1  0.55370500  0.44134800  0.43308300  1
  N  369  1  0.54406700  0.62829000  0.43649400  1
  N  382  1  0.95127700  0.13094200  0.03665600  1
  N  384  1  0.84959600  0.15966100  0.06938200  1
  N  392  1  0.89275700  0.20258500  0.11015600  1
  N  395  1  0.79285500  0.23694800  0.13989400  1
  N  410  1  0.79863300  0.82942300  0.14503600  1
  N  416  1  0.88681700  0.85155200  0.09591100  1
  N  419  1  0.94936000  0.93161500  0.03409400  1
  N  420  1  0.84788700  0.90756200  0.07057400  1
  N  436  1  0.85494600  0.16146900  0.40140100  1
  N  441  1  0.79786100  0.23389200  0.32747500  1
  N  446  1  0.89688100  0.20912600  0.36516600  1
  N  456  1  0.79321700  0.82527200  0.33190300  1
  N  463  1  0.89501300  0.86118500  0.35602300  1
  N  477  1  0.95542400  0.13335100  0.43632300  1
  N  481  1  0.85642300  0.88734900  0.41179000  1
  N  488  1  0.94541400  0.93626200  0.43317200  1
