# generated using pymatgen
data_H24C39(N4O)2
_symmetry_space_group_name_H-M   'P 1'
_cell_length_a   28.67850000
_cell_length_b   58.18315000
_cell_length_c   58.18310000
_cell_angle_alpha   119.99991472
_cell_angle_beta   89.99990000
_cell_angle_gamma   90.00000000
_symmetry_Int_Tables_number   1
_chemical_formula_structural   H24C39(N4O)2
_chemical_formula_sum   'H144 C234 N48 O12'
_cell_volume   84077.83573850
_cell_formula_units_Z   6
loop_
 _symmetry_equiv_pos_site_id
 _symmetry_equiv_pos_as_xyz
  1  'x, y, z'
loop_
 _atom_site_type_symbol
 _atom_site_label
 _atom_site_symmetry_multiplicity
 _atom_site_fract_x
 _atom_site_fract_y
 _atom_site_fract_z
 _atom_site_occupancy
  H  5  1  0.82892700  0.61196500  0.44523400  1
  H  6  1  0.68293300  0.62129800  0.44606100  1
  H  8  1  0.79501300  0.64679000  0.43892400  1
  H  34  1  0.62663600  0.91920900  0.49136100  1
  H  35  1  0.68790900  0.88786500  0.48008700  1
  H  36  1  0.63543400  0.91086800  0.41518200  1
  H  37  1  0.69660600  0.87973200  0.40407900  1
  H  38  1  0.78880800  0.88777600  0.41567700  1
  H  39  1  0.85280600  0.91735500  0.43508300  1
  H  40  1  0.84247100  0.90902100  0.50290200  1
  H  41  1  0.77871700  0.87986700  0.48364100  1
  H  42  1  0.80354800  0.83052800  0.44336800  1
  H  43  1  0.79456000  0.79524900  0.45232900  1
  H  44  1  0.64836700  0.80326900  0.45207200  1
  H  45  1  0.65738200  0.83808500  0.44263700  1
  H  46  1  0.67296700  0.83003300  0.39489500  1
  H  47  1  0.81887300  0.83799200  0.40413400  1
  H  48  1  0.82888900  0.80042500  0.36185200  1
  H  49  1  0.68290100  0.79195900  0.35252400  1
  H  52  1  0.90809500  0.93230900  0.49823100  1
  H  53  1  0.58808500  0.94640400  0.45027200  1
  H  55  1  0.68678100  0.77535900  0.46880900  1
  H  57  1  0.79492800  0.75927000  0.32707100  1
  H  63  1  0.79452500  0.62429900  0.17849800  1
  H  64  1  0.64833200  0.61595500  0.17057500  1
  H  66  1  0.68668200  0.66061200  0.19847200  1
  H  69  1  0.98156400  0.95306400  0.50959900  1
  H  77  1  0.51344000  0.93094100  0.51047900  1
  H  85  1  0.79565100  0.71292300  0.42343500  1
  H  88  1  0.66790600  0.69039600  0.48607300  1
  H  97  1  0.79581500  0.67775100  0.26080000  1
  H  100  1  0.66549800  0.76208100  0.28441900  1
  H  124  1  0.62661200  0.48245400  0.43443600  1
  H  125  1  0.68791600  0.49370500  0.41436400  1
  H  126  1  0.63537800  0.55865500  0.50224400  1
  H  127  1  0.69658600  0.56973900  0.48221100  1
  H  128  1  0.78879900  0.55810600  0.47865900  1
  H  129  1  0.85280200  0.53869700  0.48882700  1
  H  130  1  0.84248200  0.47089000  0.41266300  1
  H  131  1  0.77872200  0.49015000  0.40277500  1
  H  132  1  0.80352600  0.53041500  0.39371700  1
  H  133  1  0.79449600  0.52144400  0.34947100  1
  H  134  1  0.64830700  0.52168200  0.35777300  1
  H  135  1  0.65734700  0.53112800  0.40202900  1
  H  136  1  0.67296000  0.57890100  0.44171700  1
  H  137  1  0.81889900  0.56965400  0.44046500  1
  H  139  1  0.90802300  0.47551100  0.44063600  1
  H  140  1  0.58802200  0.52356600  0.50270300  1
  H  142  1  0.68668600  0.50498200  0.31313000  1
  H  164  1  0.62652800  0.53937800  0.05462100  1
  H  165  1  0.68779700  0.55945300  0.08596700  1
  H  166  1  0.63554500  0.47147200  0.06283200  1
  H  167  1  0.69670800  0.49151400  0.09397800  1
  H  168  1  0.78887900  0.49512000  0.08603400  1
  H  169  1  0.85283900  0.48495400  0.05643500  1
  H  170  1  0.84230100  0.56106300  0.06468000  1
  H  171  1  0.77858800  0.57095100  0.09385900  1
  H  172  1  0.80352700  0.58006500  0.14320600  1
  H  173  1  0.65736200  0.57171300  0.13574400  1
  H  174  1  0.67295500  0.53195600  0.14367200  1
  H  175  1  0.81885800  0.53341400  0.13582900  1
  H  176  1  0.82887100  0.52868600  0.17338800  1
  H  177  1  0.68287800  0.52764300  0.18174400  1
  H  180  1  0.90783200  0.53310700  0.04129900  1
  H  181  1  0.58814700  0.47106500  0.02732000  1
  H  183  1  0.79491100  0.53494500  0.21448100  1
  H  191  1  0.12643500  0.47820200  0.55257100  1
  H  192  1  0.18769300  0.46692700  0.57264600  1
  H  193  1  0.34218600  0.48988200  0.57412300  1
  H  194  1  0.27846200  0.47059600  0.58401500  1
  H  195  1  0.14841300  0.43875300  0.62906700  1
  H  197  1  0.40793200  0.48520400  0.54623100  1
  H  199  1  0.18684600  0.45572800  0.67378800  1
  H  207  1  0.13547700  0.48915500  0.92399700  1
  H  208  1  0.19664400  0.46911800  0.89285400  1
  H  209  1  0.28886000  0.46553700  0.90084100  1
  H  210  1  0.35286600  0.47570500  0.93041600  1
  H  212  1  0.08802600  0.48958000  0.95947500  1
  H  220  1  0.98135500  0.46399600  0.44998100  1
  H  223  1  0.01334000  0.49728800  0.55986000  1
  H  232  1  0.98120100  0.52380300  0.02047400  1
  H  241  1  0.48143700  0.49658700  0.53688300  1
  H  244  1  0.51025300  0.46563600  0.42729100  1
  H  255  1  0.51013400  0.54646200  0.04496700  1
  H  264  1  0.79580300  0.55018400  0.29599200  1
  H  267  1  0.66542900  0.48952000  0.21167900  1
  H  275  1  0.16821500  0.47315500  0.77608800  1
  H  277  1  0.29461700  0.43945700  0.63750100  1
  H  296  1  0.13570700  0.40215700  0.48457700  1
  H  297  1  0.19686100  0.39105200  0.50462300  1
  H  298  1  0.28903400  0.40247700  0.50828100  1
  H  299  1  0.35300600  0.42190300  0.49811200  1
  H  300  1  0.30361700  0.43047400  0.59324800  1
  H  301  1  0.15743700  0.42930200  0.58480800  1
  H  302  1  0.17293300  0.38169400  0.54497800  1
  H  303  1  0.31884100  0.39112500  0.54669000  1
  H  304  1  0.32887600  0.34883500  0.54195500  1
  H  305  1  0.18289500  0.33929400  0.54065200  1
  H  307  1  0.08816600  0.43720400  0.48420100  1
  H  308  1  0.29493100  0.31393000  0.54807900  1
  H  328  1  0.12658800  0.42128400  0.93227800  1
  H  329  1  0.18785400  0.40121500  0.90093500  1
  H  330  1  0.34239500  0.39959000  0.92216200  1
  H  331  1  0.27863600  0.38970400  0.89301400  1
  H  332  1  0.30357100  0.38057400  0.84367200  1
  H  333  1  0.29455100  0.33632600  0.80840000  1
  H  334  1  0.14836100  0.34468100  0.81635500  1
  H  335  1  0.15739900  0.38893100  0.85116000  1
  H  336  1  0.17293700  0.42862300  0.84316800  1
  H  337  1  0.31888200  0.42726100  0.85107000  1
  H  338  1  0.32887300  0.43200100  0.81351400  1
  H  339  1  0.18289200  0.43294300  0.80509500  1
  H  341  1  0.40805700  0.42752500  0.94542400  1
  H  343  1  0.18678000  0.29999200  0.78848700  1
  H  344  1  0.29484000  0.42554100  0.77233400  1
  H  347  1  0.01352400  0.41390000  0.94409200  1
  H  348  1  0.48153100  0.43689700  0.96617700  1
  H  352  1  0.29546100  0.41016600  0.69076500  1
  H  360  1  0.29589000  0.24763400  0.56327700  1
  H  363  1  0.16540800  0.27132400  0.50269100  1
  H  371  1  0.29555100  0.28297800  0.72601400  1
  H  399  1  0.12638300  0.04161300  0.49560800  1
  H  400  1  0.18764800  0.07295400  0.50687300  1
  H  401  1  0.13572100  0.04963400  0.57163700  1
  H  402  1  0.19688200  0.08078300  0.58273800  1
  H  403  1  0.28908000  0.07307000  0.57132900  1
  H  404  1  0.35305100  0.04347700  0.55190100  1
  H  405  1  0.34211900  0.05144000  0.48388600  1
  H  406  1  0.27840300  0.08062100  0.50317600  1
  H  407  1  0.30356100  0.12997300  0.54324200  1
  H  408  1  0.29450900  0.16526100  0.53429100  1
  H  409  1  0.14831500  0.15757500  0.53512900  1
  H  410  1  0.15739200  0.12274900  0.54454400  1
  H  411  1  0.17291900  0.13048600  0.59212200  1
  H  412  1  0.31884100  0.12282900  0.58263500  1
  H  413  1  0.32887600  0.16038700  0.62491400  1
  H  414  1  0.18289500  0.16856000  0.63451400  1
  H  417  1  0.40785900  0.02821800  0.48854600  1
  H  418  1  0.08818000  0.01420100  0.53656900  1
  H  420  1  0.18660200  0.18536800  0.51819900  1
  H  422  1  0.29489600  0.20141500  0.65982000  1
  H  429  1  0.01006200  0.03191100  0.47889200  1
  H  433  1  0.48128000  0.00742400  0.47706900  1
  H  437  1  0.16799900  0.19774500  0.70353600  1
  C  1  1  0.75701000  0.62134700  0.44667500  1
  C  2  1  0.79566400  0.60583500  0.44576000  1
  C  3  1  0.70618000  0.58607200  0.44395200  1
  C  4  1  0.71200900  0.61121200  0.44628900  1
  C  7  1  0.76434900  0.64445700  0.44553600  1
  C  9  1  0.75697500  0.79251300  0.35245900  1
  C  10  1  0.79563200  0.80710700  0.36796400  1
  C  11  1  0.78955800  0.82984500  0.39303800  1
  C  12  1  0.74468000  0.83960900  0.40397100  1
  C  13  1  0.70617900  0.82510900  0.38771100  1
  C  14  1  0.71198400  0.80229400  0.36257600  1
  C  15  1  0.73792900  0.85945200  0.43364600  1
  C  16  1  0.73161500  0.83974600  0.44371100  1
  C  17  1  0.68696900  0.83034900  0.44586800  1
  C  18  1  0.68145500  0.80931300  0.45103500  1
  C  19  1  0.72053200  0.79586800  0.45341500  1
  C  20  1  0.76527900  0.80456400  0.45097100  1
  C  21  1  0.77045600  0.82577300  0.44602300  1
  C  22  1  0.77863200  0.87884200  0.44655600  1
  C  23  1  0.69707500  0.87871400  0.44012300  1
  C  24  1  0.67652700  0.89189500  0.46582500  1
  C  25  1  0.64013800  0.91049800  0.47257600  1
  C  26  1  0.62350100  0.91768900  0.45415200  1
  C  27  1  0.64533000  0.90579100  0.42897300  1
  C  28  1  0.68138200  0.88704100  0.42228700  1
  C  29  1  0.79994300  0.89178900  0.43400700  1
  C  30  1  0.83776300  0.90945700  0.44553800  1
  C  31  1  0.85518900  0.91587700  0.47081800  1
  C  32  1  0.83205200  0.90456000  0.48428500  1
  C  33  1  0.79437200  0.88695300  0.47265900  1
  C  50  1  0.58886200  0.93682400  0.46043800  1
  C  51  1  0.76429600  0.76823800  0.32937500  1
  C  54  1  0.71405500  0.77479000  0.45794800  1
  C  56  1  0.89384200  0.93231400  0.48265500  1
  C  58  1  0.68694100  0.58269300  0.14346300  1
  C  59  1  0.68141800  0.60889000  0.16450800  1
  C  60  1  0.72049300  0.62473200  0.17792900  1
  C  61  1  0.76524500  0.61361500  0.16920100  1
  C  62  1  0.77042900  0.58746100  0.14798300  1
  C  65  1  0.71400900  0.65034000  0.19901600  1
  C  67  1  0.98207100  0.96562600  0.50213200  1
  C  68  1  0.94784100  0.96446500  0.48412200  1
  C  71  1  0.52174600  0.95948600  0.48633700  1
  C  74  1  0.48775500  0.96052900  0.50462000  1
  C  75  1  0.48853900  0.94448600  0.51594700  1
  C  79  1  0.73506000  0.68552600  0.45197900  1
  C  81  1  0.77049900  0.71153900  0.43512900  1
  C  82  1  0.73849100  0.73223200  0.44924500  1
  C  84  1  0.70260000  0.70629900  0.46639800  1
  C  86  1  0.66741000  0.70510600  0.48209400  1
  C  91  1  0.73498900  0.73361300  0.28830600  1
  C  93  1  0.77056100  0.69079500  0.26222600  1
  C  94  1  0.73846000  0.68419300  0.24156900  1
  C  96  1  0.70246100  0.72723700  0.26755600  1
  C  98  1  0.66700100  0.74399100  0.26875000  1
  C  103  1  0.78958000  0.58073100  0.44335400  1
  C  104  1  0.74469100  0.56981900  0.44218200  1
  C  105  1  0.73792400  0.54014300  0.43236800  1
  C  106  1  0.73158800  0.53008300  0.40259500  1
  C  107  1  0.68692500  0.52789500  0.39105400  1
  C  108  1  0.68140000  0.52272500  0.36485100  1
  C  109  1  0.72046700  0.52035300  0.34902200  1
  C  110  1  0.76522600  0.52279800  0.36015100  1
  C  111  1  0.77043100  0.52775000  0.38630900  1
  C  112  1  0.77861600  0.52722400  0.43884700  1
  C  113  1  0.69708500  0.53367100  0.44517100  1
  C  114  1  0.67652700  0.50797400  0.43265100  1
  C  115  1  0.64013100  0.50123500  0.44450800  1
  C  116  1  0.62346700  0.51967500  0.47011100  1
  C  117  1  0.64528400  0.54485800  0.48338200  1
  C  118  1  0.68136000  0.55153100  0.47131800  1
  C  119  1  0.79993800  0.53977700  0.46434100  1
  C  120  1  0.83775700  0.52824100  0.47047400  1
  C  121  1  0.85518800  0.50296500  0.45161000  1
  C  122  1  0.83205700  0.48950400  0.42682300  1
  C  123  1  0.79437700  0.50112800  0.42084200  1
  C  138  1  0.58879900  0.51340100  0.48295400  1
  C  141  1  0.71396400  0.51584200  0.32341800  1
  C  143  1  0.89383600  0.49112100  0.45620900  1
  C  144  1  0.75695500  0.52711500  0.18124600  1
  C  145  1  0.79561800  0.52808700  0.16668900  1
  C  146  1  0.78954800  0.53043300  0.14395500  1
  C  147  1  0.74467200  0.53155700  0.13416200  1
  C  148  1  0.70617200  0.52976900  0.14864800  1
  C  149  1  0.71196800  0.52741000  0.17144000  1
  C  150  1  0.73791500  0.54139300  0.11432200  1
  C  151  1  0.73158900  0.57116100  0.13403200  1
  C  152  1  0.77861500  0.53491800  0.09493400  1
  C  153  1  0.69706300  0.52860500  0.09505900  1
  C  154  1  0.67645700  0.54114600  0.08191300  1
  C  155  1  0.64006100  0.52929600  0.06331500  1
  C  156  1  0.62349800  0.50365600  0.05608300  1
  C  157  1  0.64538500  0.49035600  0.06794300  1
  C  158  1  0.68143800  0.50242400  0.08669300  1
  C  159  1  0.79999000  0.50943900  0.08201700  1
  C  160  1  0.83776600  0.50329800  0.06432000  1
  C  161  1  0.85512200  0.52214700  0.05786500  1
  C  162  1  0.83194000  0.54691700  0.06916800  1
  C  163  1  0.79428600  0.55289700  0.08678900  1
  C  178  1  0.58885500  0.49081300  0.03695000  1
  C  179  1  0.76427600  0.52829000  0.20551400  1
  C  182  1  0.89373100  0.51754400  0.04139600  1
  C  184  1  0.22058200  0.44031300  0.63788200  1
  C  185  1  0.17640600  0.45268700  0.55431900  1
  C  186  1  0.14003700  0.45944200  0.54245900  1
  C  187  1  0.12353400  0.44105500  0.51679900  1
  C  188  1  0.35514300  0.45772300  0.53525700  1
  C  189  1  0.33187500  0.47122700  0.55999900  1
  C  190  1  0.29421600  0.45959100  0.56598100  1
  C  196  1  0.08891200  0.44735300  0.50394900  1
  C  198  1  0.21411400  0.44485900  0.66349700  1
  C  200  1  0.39377100  0.46958000  0.53066100  1
  C  201  1  0.12350900  0.45699500  0.93079400  1
  C  202  1  0.14534800  0.47028000  0.91890500  1
  C  203  1  0.18140000  0.45821500  0.90015300  1
  C  204  1  0.29998300  0.45122400  0.90486200  1
  C  205  1  0.33778900  0.45736100  0.92253900  1
  C  206  1  0.35517800  0.43851100  0.92898100  1
  C  211  1  0.08884900  0.46983400  0.94992000  1
  C  213  1  0.39383400  0.44310400  0.94541400  1
  C  214  1  0.02174700  0.47321500  0.50718100  1
  C  216  1  0.98200900  0.47158400  0.47002700  1
  C  217  1  0.94791300  0.48970000  0.48688800  1
  C  219  1  0.98771400  0.49147100  0.52441700  1
  C  221  1  0.98846000  0.50276800  0.55178400  1
  C  226  1  0.02175000  0.46659200  0.97258700  1
  C  228  1  0.98191800  0.50375000  0.00805400  1
  C  229  1  0.94789900  0.48687700  0.00935400  1
  C  231  1  0.98779800  0.44934700  0.97365600  1
  C  235  1  0.52159900  0.48755400  0.47970800  1
  C  237  1  0.48200500  0.48907500  0.51684800  1
  C  238  1  0.44785400  0.47100600  0.49999000  1
  C  240  1  0.48754600  0.46932500  0.46246500  1
  C  242  1  0.48830200  0.45824500  0.43512100  1
  C  247  1  0.52159900  0.49406200  0.01438800  1
  C  249  1  0.48205700  0.45692800  0.97872600  1
  C  250  1  0.44785400  0.47378200  0.97755400  1
  C  252  1  0.48749000  0.51129800  0.01343700  1
  C  253  1  0.48819100  0.53863900  0.02974200  1
  C  258  1  0.73495500  0.52184800  0.24013700  1
  C  260  1  0.77053900  0.53857300  0.28295000  1
  C  261  1  0.73841900  0.52453100  0.28955600  1
  C  263  1  0.70240700  0.50748700  0.24651700  1
  C  265  1  0.66692800  0.49194300  0.22976900  1
  C  270  1  0.23508400  0.43887500  0.74678400  1
  C  272  1  0.20275700  0.45338300  0.74046700  1
  C  273  1  0.16769900  0.46917800  0.75739900  1
  C  278  1  0.25696800  0.33934400  0.54026300  1
  C  279  1  0.29562800  0.35491200  0.54131000  1
  C  280  1  0.28954700  0.37999300  0.54365900  1
  C  281  1  0.24464900  0.39086200  0.54471700  1
  C  282  1  0.20615700  0.37455800  0.54284600  1
  C  283  1  0.21197600  0.34941200  0.54049500  1
  C  284  1  0.23794000  0.42053900  0.55453300  1
  C  285  1  0.23166700  0.43059400  0.58430500  1
  C  286  1  0.18700600  0.43265600  0.59581600  1
  C  287  1  0.18149700  0.43780700  0.62201400  1
  C  288  1  0.26533400  0.43798900  0.62678600  1
  C  289  1  0.27051500  0.43304400  0.60062900  1
  C  290  1  0.27862200  0.43344300  0.54803200  1
  C  291  1  0.19707700  0.42701900  0.54175700  1
  C  292  1  0.14548400  0.41591200  0.50348100  1
  C  293  1  0.18152500  0.40922500  0.51555200  1
  C  294  1  0.30007400  0.42084000  0.52257300  1
  C  295  1  0.33787600  0.43238600  0.51643900  1
  C  306  1  0.26429400  0.31624400  0.54142700  1
  C  309  1  0.25695800  0.43352400  0.80563400  1
  C  310  1  0.29562100  0.43253900  0.82018700  1
  C  311  1  0.28956100  0.43022300  0.84293800  1
  C  312  1  0.24467300  0.42906500  0.85269000  1
  C  313  1  0.20615000  0.43086700  0.83823200  1
  C  314  1  0.21196600  0.43318500  0.81541700  1
  C  315  1  0.23791900  0.41925300  0.87255300  1
  C  316  1  0.23163900  0.38947800  0.85284000  1
  C  317  1  0.18697500  0.37794000  0.84346500  1
  C  318  1  0.18144800  0.35173800  0.82242900  1
  C  319  1  0.22051900  0.33590000  0.80899100  1
  C  320  1  0.26527800  0.34701800  0.81769900  1
  C  321  1  0.27047300  0.37317800  0.83890000  1
  C  322  1  0.27861200  0.42574400  0.89195200  1
  C  323  1  0.19706600  0.43204800  0.89181600  1
  C  324  1  0.17649700  0.41951500  0.90497800  1
  C  325  1  0.14009300  0.43136200  0.92357200  1
  C  326  1  0.33200000  0.41373800  0.91768500  1
  C  327  1  0.29432000  0.40775800  0.90007900  1
  C  340  1  0.26427700  0.43231000  0.78134900  1
  C  342  1  0.21402700  0.31029500  0.78790500  1
  C  345  1  0.98863100  0.42197200  0.95763900  1
  C  350  1  0.27040000  0.42192700  0.70387300  1
  C  351  1  0.23851600  0.43612700  0.69733400  1
  C  354  1  0.23498300  0.27517500  0.53498300  1
  C  356  1  0.27060200  0.24907500  0.55168300  1
  C  357  1  0.23846300  0.22843300  0.53765300  1
  C  359  1  0.20241500  0.25444100  0.52063500  1
  C  361  1  0.16691500  0.25565400  0.50510800  1
  C  365  1  0.23504600  0.22700500  0.69863700  1
  C  367  1  0.27043500  0.26988700  0.72464000  1
  C  368  1  0.23846300  0.27644400  0.74534500  1
  C  370  1  0.20262800  0.23334100  0.71942500  1
  C  374  1  0.25697200  0.16816100  0.63442900  1
  C  375  1  0.29562800  0.15365500  0.61884700  1
  C  376  1  0.28954000  0.13092200  0.59376800  1
  C  377  1  0.24464200  0.12108600  0.58291800  1
  C  378  1  0.20615700  0.13550900  0.59923200  1
  C  379  1  0.21198000  0.15831400  0.62436900  1
  C  380  1  0.23791900  0.10122000  0.55324400  1
  C  381  1  0.23161500  0.12092800  0.54318100  1
  C  382  1  0.18694400  0.13039100  0.54115900  1
  C  383  1  0.18140300  0.15143100  0.53600100  1
  C  384  1  0.22047100  0.16480300  0.53349200  1
  C  385  1  0.26523600  0.15601500  0.53577200  1
  C  386  1  0.27044900  0.13480000  0.54071000  1
  C  387  1  0.27860800  0.08181700  0.54034100  1
  C  388  1  0.19707000  0.08195600  0.54677500  1
  C  389  1  0.17637500  0.06886600  0.52111200  1
  C  390  1  0.13999600  0.05025800  0.51436400  1
  C  391  1  0.12351600  0.04297500  0.53274800  1
  C  392  1  0.14549500  0.05478200  0.55788200  1
  C  393  1  0.18153200  0.07354300  0.56456800  1
  C  394  1  0.30008400  0.06897900  0.55295300  1
  C  395  1  0.33789300  0.05130400  0.54141000  1
  C  396  1  0.35512600  0.04476100  0.51605900  1
  C  397  1  0.33183300  0.05598200  0.50254600  1
  C  398  1  0.29417400  0.07360100  0.51418400  1
  C  415  1  0.08888100  0.02383600  0.52645400  1
  C  416  1  0.26429100  0.19242400  0.65752900  1
  C  419  1  0.21396400  0.18589900  0.52898900  1
  C  421  1  0.39375800  0.02831100  0.50420400  1
  C  423  1  0.02158600  0.00129800  0.50067100  1
  C  426  1  0.98744900  0.00036400  0.48250500  1
  C  427  1  0.98812900  0.01668400  0.47148500  1
  C  431  1  0.48196700  0.99498300  0.48467700  1
  C  432  1  0.44790600  0.99626000  0.50282100  1
  C  436  1  0.16748700  0.21643400  0.71824600  1
  N  70  1  0.91163300  0.94774300  0.47500900  1
  N  72  1  0.51692700  0.97693700  0.47732600  1
  N  73  1  0.45302800  0.97897200  0.51192400  1
  N  78  1  0.55723900  0.94219900  0.47818100  1
  N  80  1  0.76742000  0.68923600  0.43695900  1
  N  83  1  0.70606100  0.72845000  0.46411200  1
  N  89  1  0.73347500  0.66281900  0.45243500  1
  N  90  1  0.74059300  0.75417500  0.44754000  1
  N  92  1  0.76746700  0.71491800  0.28454100  1
  N  95  1  0.70591600  0.70280300  0.24539800  1
  N  101  1  0.73344300  0.75678500  0.31100000  1
  N  102  1  0.74058000  0.66055300  0.21961600  1
  N  215  1  0.01696900  0.46423200  0.48072300  1
  N  218  1  0.95299200  0.49877500  0.51327500  1
  N  224  1  0.05724000  0.46506200  0.51631400  1
  N  225  1  0.91170000  0.49880800  0.47927600  1
  N  227  1  0.01688900  0.49305600  0.99001200  1
  N  230  1  0.95306100  0.46048400  0.99209200  1
  N  233  1  0.05725400  0.45746200  0.95530700  1
  N  234  1  0.91169100  0.49448800  0.02607800  1
  N  236  1  0.51693000  0.49645200  0.50615600  1
  N  239  1  0.45284700  0.46200600  0.47361300  1
  N  245  1  0.55713800  0.49568700  0.47058100  1
  N  246  1  0.41165200  0.46188600  0.50759700  1
  N  248  1  0.51697900  0.46761900  0.99680000  1
  N  251  1  0.45279800  0.50015400  0.99496800  1
  N  256  1  0.55712800  0.50318700  0.03165200  1
  N  257  1  0.41164500  0.46617600  0.96083100  1
  N  259  1  0.76744800  0.53676500  0.25882700  1
  N  262  1  0.70585700  0.50976200  0.27095000  1
  N  268  1  0.73341200  0.52137400  0.21696700  1
  N  269  1  0.74052400  0.52622900  0.31320100  1
  N  271  1  0.20620900  0.45108500  0.71602500  1
  N  276  1  0.23350800  0.43935100  0.76995400  1
  N  349  1  0.26732500  0.42376800  0.72801100  1
  N  353  1  0.24062200  0.43442400  0.67368700  1
  N  355  1  0.26750200  0.27139100  0.54988000  1
  N  358  1  0.20587800  0.23227800  0.52290300  1
  N  364  1  0.23343500  0.29787200  0.53451200  1
  N  366  1  0.26736300  0.24575400  0.70233700  1
  N  369  1  0.20608000  0.25778000  0.74157800  1
  N  373  1  0.24055900  0.30009300  0.76728700  1
  N  424  1  0.01699400  0.98369700  0.50951100  1
  N  425  1  0.95275900  0.98189400  0.47518100  1
  N  430  1  0.05712500  0.01855800  0.50880400  1
  N  434  1  0.41169800  0.01298200  0.51193200  1
  N  435  1  0.24058300  0.20647800  0.53933900  1
  N  438  1  0.23347300  0.20384200  0.67593000  1
  O  76  1  0.45105800  0.93754300  0.52050500  1
  O  87  1  0.65003300  0.72567100  0.49953300  1
  O  99  1  0.65503500  0.74276600  0.24798500  1
  O  222  1  0.95096200  0.50731900  0.56326800  1
  O  243  1  0.45249100  0.44903700  0.42236100  1
  O  254  1  0.45234900  0.55138000  0.03331200  1
  O  266  1  0.65492800  0.47241100  0.23100000  1
  O  274  1  0.15048400  0.48666700  0.75429600  1
  O  346  1  0.95117000  0.41044500  0.95072400  1
  O  362  1  0.15488800  0.23489600  0.48558100  1
  O  372  1  0.15015700  0.21955000  0.73881600  1
  O  428  1  0.95227400  0.02025400  0.46232300  1
