# generated using pymatgen
data_SiH20C32(N2O)4
_symmetry_space_group_name_H-M   'P 1'
_cell_length_a   28.76858449
_cell_length_b   28.76858449
_cell_length_c   28.76858449
_cell_angle_alpha   109.47122063
_cell_angle_beta   109.47122063
_cell_angle_gamma   109.47122063
_symmetry_Int_Tables_number   1
_chemical_formula_structural   SiH20C32(N2O)4
_chemical_formula_sum   'Si6 H120 C192 N48 O24'
_cell_volume   18328.78134702
_cell_formula_units_Z   6
loop_
 _symmetry_equiv_pos_site_id
 _symmetry_equiv_pos_as_xyz
  1  'x, y, z'
loop_
 _atom_site_type_symbol
 _atom_site_label
 _atom_site_symmetry_multiplicity
 _atom_site_fract_x
 _atom_site_fract_y
 _atom_site_fract_z
 _atom_site_occupancy
  C  1  1  0.47417300  0.01560850  0.95785050  1
  C  3  1  0.51517800  0.04208400  0.05561800  1
  C  5  1  0.45920450  0.94428300  0.98432450  1
  C  13  1  0.01371150  0.47730400  0.03420750  1
  C  15  1  0.97337100  0.53478000  0.02052200  1
  C  17  1  0.03058000  0.52079100  0.97991900  1
  C  25  1  0.43597750  0.48471400  0.46420250  1
  C  27  1  0.50717650  0.45811050  0.47907000  1
  C  29  1  0.53380600  0.55594600  0.52059800  1
  C  37  1  0.05110650  0.02219450  0.54239400  1
  C  39  1  0.97990150  0.96487950  0.44459200  1
  C  41  1  0.95332950  0.97924800  0.51582050  1
  C  49  1  0.97347450  0.95764950  0.01552100  1
  C  51  1  0.01468150  0.05547100  0.04221750  1
  C  53  1  0.95844850  0.98434000  0.94435950  1
  C  61  1  0.51365800  0.03450500  0.47736000  1
  C  63  1  0.47271300  0.02043100  0.53429200  1
  C  65  1  0.52975200  0.97960150  0.52030550  1
  C  73  1  0.93620500  0.46514950  0.48491850  1
  C  75  1  0.00719150  0.47977500  0.45802850  1
  C  77  1  0.03410800  0.52117050  0.55593950  1
  C  85  1  0.55103800  0.54223800  0.02279900  1
  C  87  1  0.48000150  0.44437850  0.96541100  1
  C  89  1  0.45321050  0.51544250  0.97953000  1
  C  193  1  0.41869100  0.09499050  0.61359450  1
  C  194  1  0.36738200  0.09565450  0.60212850  1
  C  195  1  0.35278200  0.10824350  0.64498850  1
  C  196  1  0.38892050  0.12013750  0.70006300  1
  C  197  1  0.44361350  0.12704450  0.71298900  1
  C  198  1  0.45775800  0.11333100  0.67002300  1
  C  200  1  0.41374900  0.19485850  0.79942650  1
  C  201  1  0.45694250  0.21376200  0.85448150  1
  C  202  1  0.48730450  0.27123200  0.89733550  1
  C  203  1  0.47526200  0.31111700  0.88587600  1
  C  204  1  0.43716050  0.29377450  0.82946000  1
  C  205  1  0.40781450  0.23665300  0.78649750  1
  C  206  1  0.30186050  0.10780500  0.72485250  1
  C  207  1  0.37639650  0.08305550  0.77478000  1
  C  208  1  0.36931300  0.08907300  0.82247800  1
  C  209  1  0.38267050  0.05964150  0.85024900  1
  C  210  1  0.40083450  0.02137200  0.82953450  1
  C  211  1  0.40040600  0.00930750  0.77766850  1
  C  212  1  0.38822900  0.03980150  0.75059850  1
  C  213  1  0.26006850  0.05303950  0.67719400  1
  C  214  1  0.20287250  0.03869750  0.64961500  1
  C  215  1  0.18545100  0.07765400  0.67047800  1
  C  216  1  0.22538350  0.12910550  0.72229000  1
  C  217  1  0.28293600  0.14391750  0.74917450  1
  C  233  1  0.42166750  0.99813000  0.86212350  1
  C  234  1  0.12958800  0.06590950  0.63807050  1
  C  235  1  0.49814900  0.36671750  0.93014850  1
  C  237  1  0.43005400  0.07361600  0.56934300  1
  C  242  1  0.06846200  0.18905550  0.17045950  1
  C  243  1  0.11985450  0.22902850  0.22231900  1
  C  244  1  0.13446800  0.28650950  0.24929050  1
  C  245  1  0.09825750  0.30532800  0.22493750  1
  C  246  1  0.04349500  0.26346650  0.17730350  1
  C  247  1  0.02934400  0.20633450  0.14964750  1
  C  249  1  0.07367500  0.38013900  0.27476300  1
  C  250  1  0.03035450  0.39183150  0.25041800  1
  C  251  1  0.00006850  0.40440550  0.27759700  1
  C  252  1  0.01232800  0.40526700  0.32967100  1
  C  253  1  0.05059450  0.38715250  0.35053700  1
  C  254  1  0.07988700  0.37348700  0.32271200  1
  C  255  1  0.18541400  0.41719100  0.29907400  1
  C  256  1  0.11051400  0.39211600  0.19974600  1
  C  257  1  0.11745250  0.44679300  0.21250750  1
  C  258  1  0.10424450  0.46099900  0.16954850  1
  C  259  1  0.08622050  0.42193450  0.11323600  1
  C  260  1  0.08659500  0.37051300  0.10188700  1
  C  261  1  0.09875050  0.35588650  0.14476400  1
  C  262  1  0.22702350  0.41108800  0.28589050  1
  C  263  1  0.28428200  0.44063550  0.32857950  1
  C  264  1  0.30194050  0.47902000  0.38501050  1
  C  265  1  0.26218300  0.49112150  0.39670850  1
  C  266  1  0.20458350  0.46059150  0.35412200  1
  C  282  1  0.06559750  0.43355350  0.06901300  1
  C  283  1  0.35780050  0.50226900  0.42903750  1
  C  284  1  0.98930600  0.42650550  0.36230850  1
  C  286  1  0.05708400  0.13339350  0.13787450  1
  C  389  1  0.80245350  0.38573550  0.47946500  1
  C  390  1  0.76259100  0.39725800  0.49149600  1
  C  391  1  0.70504950  0.35452750  0.46093800  1
  C  392  1  0.68604500  0.29952800  0.41756600  1
  C  393  1  0.72777650  0.28652650  0.41155400  1
  C  394  1  0.78497650  0.32936000  0.44111050  1
  C  396  1  0.61133050  0.20020100  0.39268550  1
  C  397  1  0.59974100  0.14524150  0.35662050  1
  C  398  1  0.58756400  0.10242950  0.37132450  1
  C  399  1  0.58701750  0.11382950  0.42267600  1
  C  400  1  0.60494100  0.17014800  0.46162700  1
  C  401  1  0.61817000  0.21304650  0.44734350  1
  C  402  1  0.57426500  0.27499000  0.38031900  1
  C  403  1  0.59893250  0.22502950  0.30567200  1
  C  404  1  0.54422450  0.17727700  0.26387850  1
  C  405  1  0.53004400  0.14951100  0.20674700  1
  C  406  1  0.56909350  0.17028000  0.18938350  1
  C  407  1  0.62046450  0.22218450  0.22929800  1
  C  408  1  0.63507150  0.24932550  0.28676400  1
  C  409  1  0.58040850  0.32283700  0.37348950  1
  C  410  1  0.55103650  0.35063100  0.38698150  1
  C  411  1  0.51277000  0.32985100  0.40512600  1
  C  412  1  0.50063800  0.27789900  0.40451700  1
  C  413  1  0.53098700  0.25073900  0.39209600  1
  C  429  1  0.55763000  0.13769200  0.13367700  1
  C  430  1  0.48960850  0.36245100  0.42612750  1
  C  431  1  0.56621700  0.06962200  0.43426100  1
  C  433  1  0.85822050  0.42989600  0.50267650  1
  C  438  1  0.90001000  0.82925000  0.02108600  1
  C  439  1  0.89969000  0.77743600  0.00904700  1
  C  440  1  0.88759050  0.75035600  0.03955450  1
  C  441  1  0.87585400  0.77454950  0.08289050  1
  C  442  1  0.86869650  0.82220850  0.08892200  1
  C  443  1  0.88188450  0.84993700  0.05940450  1
  C  445  1  0.80150000  0.72457950  0.10780650  1
  C  446  1  0.78265600  0.74899100  0.14396300  1
  C  447  1  0.72514800  0.72212200  0.12928500  1
  C  448  1  0.68515850  0.67029450  0.07787700  1
  C  449  1  0.70248450  0.64932850  0.03886300  1
  C  450  1  0.75964850  0.67686200  0.05309550  1
  C  451  1  0.88868950  0.69994650  0.11995600  1
  C  452  1  0.91336450  0.79919350  0.19474000  1
  C  453  1  0.90752550  0.78618000  0.23652050  1
  C  454  1  0.93688250  0.82908750  0.29366700  1
  C  455  1  0.97486400  0.88556000  0.31104100  1
  C  456  1  0.98679200  0.89712800  0.27115000  1
  C  457  1  0.95642650  0.85432300  0.21365750  1
  C  458  1  0.94342500  0.71305900  0.12689600  1
  C  459  1  0.95773850  0.67022400  0.11317450  1
  C  460  1  0.91877200  0.61370750  0.09469250  1
  C  461  1  0.86739500  0.60203350  0.09526650  1
  C  462  1  0.85264400  0.64477700  0.10792200  1
  C  478  1  0.99781100  0.92975500  0.36671300  1
  C  479  1  0.93034800  0.56959750  0.07339850  1
  C  480  1  0.62935650  0.63792600  0.06627350  1
  C  482  1  0.92082300  0.86187950  0.99787450  1
  C  585  1  0.32472150  0.52054250  0.90486500  1
  C  586  1  0.27295300  0.50843700  0.90466800  1
  C  587  1  0.24568000  0.53876400  0.89247900  1
  C  588  1  0.26963000  0.58198900  0.88052100  1
  C  589  1  0.31718300  0.58801400  0.87315900  1
  C  590  1  0.34514750  0.55871950  0.88650100  1
  C  592  1  0.21864900  0.60622000  0.80599600  1
  C  593  1  0.24250950  0.64197200  0.78654450  1
  C  594  1  0.21489250  0.62697250  0.72899500  1
  C  595  1  0.16283300  0.57564050  0.68953750  1
  C  596  1  0.14239950  0.53698200  0.70741950  1
  C  597  1  0.17067700  0.55152100  0.76462000  1
  C  598  1  0.19538900  0.61929900  0.89412400  1
  C  599  1  0.29409250  0.69376200  0.91753050  1
  C  600  1  0.28089450  0.73537950  0.91147400  1
  C  601  1  0.32367300  0.79255100  0.94059800  1
  C  602  1  0.38021200  0.81017000  0.97864200  1
  C  603  1  0.39199850  0.77044850  0.99074500  1
  C  604  1  0.34934300  0.71290750  0.96053250  1
  C  605  1  0.20905100  0.62639350  0.94899450  1
  C  606  1  0.16665700  0.61310850  0.96394050  1
  C  607  1  0.11007300  0.59500050  0.92552550  1
  C  608  1  0.09792250  0.59544950  0.87403400  1
  C  609  1  0.14018200  0.60756200  0.85860800  1
  C  625  1  0.42420050  0.86601850  0.00176500  1
  C  626  1  0.06634250  0.57428400  0.93775650  1
  C  627  1  0.12990150  0.56377200  0.63373750  1
  C  629  1  0.35755100  0.49755700  0.92583300  1
  C  634  1  0.87943950  0.97912900  0.81054150  1
  C  635  1  0.89131850  0.99126350  0.77087800  1
  C  636  1  0.84871750  0.96110400  0.71332350  1
  C  637  1  0.79347100  0.91803650  0.69409550  1
  C  638  1  0.78015500  0.91197400  0.73564900  1
  C  639  1  0.82287100  0.94109850  0.79285350  1
  C  641  1  0.69474950  0.89435750  0.61936400  1
  C  642  1  0.63955700  0.85872600  0.60758200  1
  C  643  1  0.59716200  0.87395500  0.59527500  1
  C  644  1  0.60918900  0.92540250  0.59477150  1
  C  645  1  0.66575100  0.96395400  0.61294800  1
  C  646  1  0.70825900  0.94917200  0.62635700  1
  C  647  1  0.76936050  0.88103700  0.58244950  1
  C  648  1  0.71824050  0.80644300  0.60653750  1
  C  649  1  0.67041550  0.76504700  0.55175750  1
  C  650  1  0.64218700  0.70781400  0.53713200  1
  C  651  1  0.66248550  0.68993650  0.57584200  1
  C  652  1  0.71437800  0.72944800  0.62733500  1
  C  653  1  0.74196800  0.78702050  0.64239350  1
  C  654  1  0.81695800  0.87370500  0.58865500  1
  C  655  1  0.84501750  0.88693750  0.55939900  1
  C  656  1  0.82475850  0.90534650  0.52120700  1
  C  657  1  0.77300950  0.90522400  0.50899650  1
  C  658  1  0.74559850  0.89307400  0.53923250  1
  C  674  1  0.62959150  0.63405300  0.56380950  1
  C  675  1  0.85763750  0.92610400  0.49816150  1
  C  676  1  0.56534850  0.93743000  0.57386050  1
  C  678  1  0.92339250  0.00209450  0.86635700  1
  H  8  1  0.53962350  0.06552600  0.13699250  1
  H  10  1  0.40256550  0.86285900  0.92633150  1
  H  12  1  0.47589450  0.07355950  0.93429000  1
  H  20  1  0.94864600  0.59151550  0.01965850  1
  H  22  1  0.08801000  0.52041600  0.95605800  1
  H  24  1  0.01060650  0.45073550  0.08931900  1
  H  32  1  0.56509850  0.43456400  0.48046250  1
  H  34  1  0.55740700  0.63739750  0.54535350  1
  H  36  1  0.35447250  0.42681700  0.40792850  1
  H  44  1  0.92220250  0.90810050  0.36316000  1
  H  46  1  0.92984900  0.97985500  0.57366700  1
  H  48  1  0.13272700  0.04832100  0.56586400  1
  H  56  1  0.03938050  0.13692050  0.06584500  1
  H  58  1  0.90164400  0.92653200  0.86291800  1
  H  60  1  0.97521350  0.93393850  0.07337100  1
  H  68  1  0.44762450  0.01931100  0.59074750  1
  H  70  1  0.58691200  0.95536500  0.51979100  1
  H  72  1  0.51118500  0.09003450  0.45122650  1
  H  80  1  0.06492550  0.48107700  0.43421150  1
  H  82  1  0.05790350  0.54582200  0.63740150  1
  H  84  1  0.85461200  0.40909400  0.42713300  1
  H  92  1  0.42244200  0.36290000  0.90872000  1
  H  94  1  0.42959400  0.57316050  0.97991950  1
  H  96  1  0.63273200  0.56588200  0.04920600  1
  H  218  1  0.38083900  0.06792950  0.88689250  1
  H  219  1  0.35884600  0.11830900  0.84057600  1
  H  220  1  0.41275100  0.98125500  0.76131000  1
  H  221  1  0.39008150  0.03082250  0.71401600  1
  H  222  1  0.27109850  0.02440450  0.65901100  1
  H  223  1  0.17442850  0.00023400  0.61297650  1
  H  224  1  0.21377750  0.15786800  0.73871750  1
  H  225  1  0.31063850  0.18236850  0.78571600  1
  H  226  1  0.37862350  0.22563050  0.74682600  1
  H  227  1  0.42885200  0.32220100  0.81949900  1
  H  228  1  0.51525350  0.28279100  0.93772050  1
  H  229  1  0.46584950  0.18607000  0.86519750  1
  H  230  1  0.47225300  0.13750150  0.75265450  1
  H  231  1  0.31440000  0.10649650  0.63427150  1
  H  232  1  0.33857450  0.08322650  0.56173900  1
  H  236  1  0.49610650  0.11489300  0.67998450  1
  H  267  1  0.10599800  0.49941850  0.17942550  1
  H  268  1  0.12794200  0.47553900  0.25213900  1
  H  269  1  0.07445700  0.34174050  0.06160050  1
  H  270  1  0.09700650  0.31751700  0.13418050  1
  H  271  1  0.21580750  0.38173100  0.24621050  1
  H  272  1  0.31257150  0.43222700  0.31842650  1
  H  273  1  0.27395550  0.51929250  0.43709400  1
  H  274  1  0.17702500  0.46962550  0.36499350  1
  H  275  1  0.10917450  0.36312950  0.34093600  1
  H  276  1  0.05910250  0.38573650  0.38740400  1
  H  277  1  0.97195800  0.41663750  0.26110050  1
  H  278  1  0.02124600  0.39338750  0.21367750  1
  H  279  1  0.01483700  0.27443150  0.15902650  1
  H  280  1  0.17291450  0.31426750  0.28583500  1
  H  281  1  0.14871100  0.21752000  0.23875000  1
  H  285  1  0.99095750  0.17786850  0.11292600  1
  H  414  1  0.49165100  0.11278750  0.17832250  1
  H  415  1  0.51558250  0.15908050  0.27489600  1
  H  416  1  0.64923850  0.23863100  0.21770750  1
  H  417  1  0.67349150  0.28591400  0.31445850  1
  H  418  1  0.60963400  0.34096050  0.36302250  1
  H  419  1  0.55941500  0.38736950  0.38532350  1
  H  420  1  0.47250300  0.26143050  0.41673750  1
  H  421  1  0.52192200  0.21406150  0.39377250  1
  H  422  1  0.62857350  0.25268450  0.47598800  1
  H  423  1  0.60659400  0.18006850  0.50001050  1
  H  424  1  0.57544650  0.06212500  0.34261650  1
  H  425  1  0.59805100  0.13459950  0.31826750  1
  H  426  1  0.71668550  0.24688200  0.38223650  1
  H  427  1  0.67739850  0.36527400  0.46990450  1
  H  428  1  0.77425150  0.43760650  0.51963600  1
  H  432  1  0.81336300  0.31935350  0.43276150  1
  H  463  1  0.92863350  0.81905250  0.32208000  1
  H  464  1  0.87840650  0.74646600  0.22548050  1
  H  465  1  0.01467150  0.93754950  0.28273300  1
  H  466  1  0.96526900  0.86510600  0.18597200  1
  H  467  1  0.97199400  0.75279800  0.13744700  1
  H  468  1  0.99613850  0.68035450  0.11482300  1
  H  469  1  0.83867400  0.56159900  0.08281600  1
  H  470  1  0.81425000  0.63392350  0.10617150  1
  H  471  1  0.77061450  0.65862400  0.02442250  1
  H  472  1  0.67400050  0.61263000  0.00045650  1
  H  473  1  0.71357650  0.73866950  0.15803700  1
  H  474  1  0.81039250  0.78560350  0.18235500  1
  H  475  1  0.85829400  0.84031000  0.11822200  1
  H  476  1  0.88950850  0.71380500  0.03057550  1
  H  477  1  0.91196700  0.76108050  0.98092250  1
  H  481  1  0.88007250  0.88659700  0.06775250  1
  H  610  1  0.31343900  0.82085450  0.93231750  1
  H  611  1  0.24107800  0.72419500  0.88244100  1
  H  612  1  0.43246750  0.78218250  0.01865500  1
  H  613  1  0.36026800  0.68536900  0.96955800  1
  H  614  1  0.24887650  0.63681000  0.97722150  1
  H  615  1  0.17716700  0.61491500  0.00244100  1
  H  616  1  0.05740750  0.58311750  0.84563100  1
  H  617  1  0.12894550  0.60566700  0.82012350  1
  H  618  1  0.15280600  0.52312250  0.77602450  1
  H  619  1  0.10560150  0.49859100  0.67932450  1
  H  620  1  0.23110550  0.65548100  0.71704650  1
  H  621  1  0.27925000  0.68031850  0.81388650  1
  H  622  1  0.33511900  0.61724150  0.86261050  1
  H  623  1  0.20919500  0.52977650  0.89452950  1
  H  624  1  0.25678600  0.48043200  0.91713800  1
  H  628  1  0.38177300  0.56711250  0.88460850  1
  H  659  1  0.60553850  0.67968200  0.49861650  1
  H  660  1  0.65267300  0.77641650  0.52326150  1
  H  661  1  0.73052700  0.71750250  0.65587050  1
  H  662  1  0.77861350  0.81438200  0.68081550  1
  H  663  1  0.83471000  0.86302500  0.61783300  1
  H  664  1  0.88160100  0.88495250  0.56785450  1
  H  665  1  0.75692550  0.91768900  0.48095150  1
  H  666  1  0.70909850  0.89511250  0.53011700  1
  H  667  1  0.74806700  0.97748350  0.63681350  1
  H  668  1  0.67614800  0.00239800  0.61464300  1
  H  669  1  0.55668200  0.84551000  0.58299500  1
  H  670  1  0.62843300  0.82029950  0.60580150  1
  H  671  1  0.74036100  0.88283400  0.72439900  1
  H  672  1  0.85972250  0.97013500  0.68582750  1
  H  673  1  0.93180650  0.01920250  0.78268500  1
  H  677  1  0.81259700  0.93268800  0.82108500  1
  N  2  1  0.50538650  0.05580400  0.01389950  1
  N  4  1  0.49066000  0.98602350  0.03976050  1
  N  6  1  0.45057350  0.96015700  0.94412450  1
  N  7  1  0.53971300  0.08102950  0.11150150  1
  N  9  1  0.42812650  0.88834100  0.96733150  1
  N  11  1  0.46023050  0.03254050  0.91883400  1
  N  14  1  0.98233550  0.50195850  0.04311300  1
  N  16  1  0.99884300  0.54446350  0.98998050  1
  N  18  1  0.03839150  0.48830450  0.00347500  1
  N  19  1  0.94850700  0.56576800  0.03486300  1
  N  21  1  0.06237050  0.53575500  0.95594050  1
  N  23  1  0.02679450  0.45140550  0.06442900  1
  N  26  1  0.45175900  0.44445750  0.45542550  1
  N  28  1  0.54742900  0.51415200  0.51053100  1
  N  30  1  0.47775300  0.54014400  0.49598000  1
  N  31  1  0.52409150  0.41910650  0.46489000  1
  N  33  1  0.57284050  0.61185300  0.54542250  1
  N  35  1  0.38005950  0.46783750  0.43323600  1
  N  38  1  0.03532800  0.99746950  0.48635750  1
  N  40  1  0.93968250  0.95548950  0.46040300  1
  N  42  1  0.00937850  0.01149650  0.55609400  1
  N  43  1  0.96317000  0.93379200  0.38873500  1
  N  45  1  0.91437850  0.96452150  0.53268400  1
  N  47  1  0.10718650  0.04786700  0.58138050  1
  N  50  1  0.00483750  0.01366800  0.05581850  1
  N  52  1  0.99006350  0.03973800  0.98619350  1
  N  54  1  0.94977150  0.94404700  0.96010850  1
  N  55  1  0.03932650  0.11133750  0.08125300  1
  N  57  1  0.92727900  0.96750600  0.88848600  1
  N  59  1  0.95948450  0.91855400  0.03235350  1
  N  62  1  0.48213650  0.04335850  0.50183800  1
  N  64  1  0.49788400  0.98961600  0.54381400  1
  N  66  1  0.53801050  0.00348100  0.48817650  1
  N  67  1  0.44775250  0.03471800  0.56518550  1
  N  69  1  0.56132200  0.95540500  0.53517400  1
  N  71  1  0.52722900  0.06502800  0.45186600  1
  N  74  1  0.95181950  0.45632550  0.44453700  1
  N  76  1  0.04756000  0.51107150  0.51402350  1
  N  78  1  0.97809200  0.49675100  0.54029900  1
  N  79  1  0.02393350  0.46548750  0.41889500  1
  N  81  1  0.07324050  0.54578700  0.61176950  1
  N  83  1  0.88030350  0.43429500  0.46815550  1
  N  86  1  0.53539150  0.48623300  0.99812750  1
  N  88  1  0.43969450  0.46006400  0.95583450  1
  N  90  1  0.50922500  0.55581000  0.01190900  1
  N  91  1  0.46341250  0.38856550  0.93434300  1
  N  93  1  0.41419950  0.53218300  0.96457150  1
  N  95  1  0.60710100  0.58130900  0.04855400  1
  O  238  1  0.09996550  0.07291600  0.66526850  1
  O  239  1  0.40197500  0.94140250  0.83500550  1
  O  240  1  0.55485100  0.39651300  0.96733700  1
  O  241  1  0.42280550  0.09323900  0.53224550  1
  O  287  1  0.38743600  0.55899900  0.46607200  1
  O  288  1  0.08624500  0.42695750  0.03275650  1
  O  289  1  0.93256100  0.40675550  0.33534350  1
  O  290  1  0.06474650  0.10380650  0.16496400  1
  O  434  1  0.43290600  0.33534350  0.40657550  1
  O  435  1  0.56552900  0.16485350  0.10420050  1
  O  436  1  0.58661950  0.03316000  0.42754150  1
  O  437  1  0.88799650  0.46667150  0.55947200  1
  O  483  1  0.92263900  0.53213950  0.09257050  1
  O  484  1  0.05445800  0.96713500  0.39635900  1
  O  485  1  0.59959900  0.66505100  0.07288700  1
  O  486  1  0.90104200  0.83483100  0.94112600  1
  O  630  1  0.02849300  0.59295250  0.92938950  1
  O  631  1  0.46170250  0.89550800  0.05837350  1
  O  632  1  0.15677950  0.57154650  0.60399700  1
  O  633  1  0.33051800  0.44099350  0.90695750  1
  O  679  1  0.83056900  0.90735800  0.44162800  1
  O  680  1  0.65657950  0.60444600  0.57178750  1
  O  681  1  0.52774650  0.92948900  0.59285050  1
  O  682  1  0.96101500  0.05867750  0.89593450  1
  Si  199  1  0.37024300  0.12647500  0.74976900  1
  Si  248  1  0.11694600  0.37369000  0.24964000  1
  Si  395  1  0.61762950  0.24993900  0.37405450  1
  Si  444  1  0.86985600  0.74954900  0.12635200  1
  Si  591  1  0.24443850  0.62531600  0.87453350  1
  Si  640  1  0.74395800  0.87497250  0.62561350  1
