# generated using pymatgen
data_H53(C21N2)4
_symmetry_space_group_name_H-M   'P 1'
_cell_length_a   28.07250000
_cell_length_b   58.56180000
_cell_length_c   58.56180000
_cell_angle_alpha   90.00000000
_cell_angle_beta   90.00000000
_cell_angle_gamma   90.00000000
_symmetry_Int_Tables_number   1
_chemical_formula_structural   H53(C21N2)4
_chemical_formula_sum   'H212 C336 N32'
_cell_volume   96274.20135911
_cell_formula_units_Z   4
loop_
 _symmetry_equiv_pos_site_id
 _symmetry_equiv_pos_as_xyz
  1  'x, y, z'
loop_
 _atom_site_type_symbol
 _atom_site_label
 _atom_site_symmetry_multiplicity
 _atom_site_fract_x
 _atom_site_fract_y
 _atom_site_fract_z
 _atom_site_occupancy
  H  2  1  0.27948100  0.02598700  0.28815000  1
  H  5  1  0.22643600  0.02127500  0.35545000  1
  H  6  1  0.32382700  0.02453900  0.25314300  1
  H  10  1  0.28488300  0.95607900  0.36309000  1
  H  12  1  0.25702300  0.97267000  0.32418700  1
  H  16  1  0.27693800  0.04659900  0.48303700  1
  H  17  1  0.19432400  0.00595500  0.47516000  1
  H  18  1  0.18536100  0.00271600  0.43449300  1
  H  19  1  0.22435800  0.02548000  0.39618500  1
  H  23  1  0.05020400  0.32837300  0.49645700  1
  H  24  1  0.02566400  0.34770800  0.46219000  1
  H  28  1  0.08365400  0.40918500  0.48749200  1
  H  30  1  0.01830900  0.41293000  0.41183300  1
  H  34  1  0.06956700  0.58527600  0.49883700  1
  H  35  1  0.00180000  0.59506500  0.40617300  1
  H  37  1  0.00890300  0.64525200  0.47147100  1
  H  43  1  0.27132900  0.95554300  0.48285600  1
  H  44  1  0.28307500  0.96035500  0.40357400  1
  H  61  1  0.28040900  0.07479700  0.60599600  1
  H  62  1  0.28198000  0.01306200  0.57357000  1
  H  63  1  0.28341200  0.07683300  0.51408600  1
  H  64  1  0.21366200  0.08849900  0.56537900  1
  H  73  1  0.21761000  0.12928800  0.56575400  1
  H  74  1  0.32612500  0.15823300  0.52748500  1
  H  75  1  0.31473500  0.19827400  0.52290200  1
  H  76  1  0.24702800  0.20099300  0.58742700  1
  H  77  1  0.25853900  0.16108400  0.59184700  1
  H  79  1  0.27011000  0.23202800  0.53394000  1
  H  80  1  0.17412800  0.24556600  0.53362900  1
  H  90  1  0.12622800  0.27913800  0.53116000  1
  H  91  1  0.25115200  0.27439600  0.58828600  1
  H  92  1  0.04009400  0.33195400  0.61277100  1
  H  99  1  0.13239200  0.31995900  0.52055100  1
  H  100  1  0.05474900  0.37167200  0.55322900  1
  H  101  1  0.12292800  0.32136000  0.59241000  1
  H  102  1  0.20470600  0.30857100  0.58536500  1
  H  106  1  0.10806400  0.39011300  0.52153100  1
  H  107  1  0.09986700  0.39230500  0.58540900  1
  H  108  1  0.06923900  0.41357500  0.61685100  1
  H  111  1  0.10771800  0.60867500  0.59443500  1
  H  112  1  0.10027300  0.60655200  0.53026700  1
  H  114  1  0.03933400  0.66678800  0.50325800  1
  H  124  1  0.12430700  0.71979900  0.58471600  1
  H  125  1  0.25000600  0.72501000  0.52801100  1
  H  126  1  0.04928900  0.67038100  0.61929400  1
  H  133  1  0.13135300  0.67899000  0.59537100  1
  H  134  1  0.05481000  0.62697000  0.56257700  1
  H  135  1  0.12229000  0.67758800  0.52350300  1
  H  136  1  0.20398000  0.69068200  0.53074400  1
  H  137  1  0.17172500  0.75354200  0.58242400  1
  H  146  1  0.21579800  0.87073700  0.55409300  1
  H  147  1  0.25258900  0.83932000  0.52659200  1
  H  148  1  0.24038900  0.79942000  0.53044500  1
  H  150  1  0.26656300  0.76744700  0.58276000  1
  H  151  1  0.31595200  0.80017700  0.59298200  1
  H  152  1  0.32787300  0.84027600  0.58902000  1
  H  169  1  0.28319100  0.98644900  0.54513000  1
  H  170  1  0.28541300  0.92268000  0.60464000  1
  H  171  1  0.21306100  0.91153300  0.55495400  1
  H  172  1  0.27902600  0.92468500  0.51281200  1
  H  178  1  0.27349900  0.04392800  0.63598300  1
  H  179  1  0.28560500  0.03818100  0.71578400  1
  H  182  1  0.00976100  0.35349500  0.64458100  1
  H  185  1  0.00313200  0.40383500  0.70977700  1
  H  187  1  0.08307000  0.58962300  0.62845600  1
  H  191  1  0.01797500  0.58590900  0.70397800  1
  H  193  1  0.02455800  0.65107100  0.65353500  1
  H  198  1  0.22462500  0.97342600  0.72223000  1
  H  199  1  0.18664900  0.99649400  0.68433000  1
  H  200  1  0.19542600  0.99356100  0.64364300  1
  H  201  1  0.27894000  0.95289900  0.63571500  1
  H  204  1  0.25800000  0.02517700  0.79492900  1
  H  205  1  0.28705700  0.04196000  0.75631900  1
  H  208  1  0.27964200  0.97151000  0.83044400  1
  H  211  1  0.22630700  0.97713900  0.76301100  1
  H  212  1  0.32390000  0.97260200  0.86549600  1
  H  215  1  0.60623700  0.10743600  0.09504100  1
  H  216  1  0.60260800  0.10565900  0.03058500  1
  H  218  1  0.57224700  0.08401400  0.99932500  1
  H  223  1  0.61550300  0.21921500  0.08531900  1
  H  224  1  0.54752200  0.16909700  0.11986300  1
  H  231  1  0.62726500  0.17857900  0.09617900  1
  H  232  1  0.55560100  0.12531900  0.06287600  1
  H  233  1  0.62023000  0.17716700  0.02427300  1
  H  236  1  0.53789700  0.16513600  0.00393100  1
  H  237  1  0.66102100  0.25364800  0.08437700  1
  H  238  1  0.65980600  0.74325600  0.03329900  1
  H  242  1  0.61474800  0.77781100  0.03259500  1
  H  249  1  0.62688800  0.81837800  0.02202600  1
  H  250  1  0.55517700  0.87148400  0.05553400  1
  H  251  1  0.61983100  0.81949500  0.09393400  1
  H  252  1  0.53763600  0.83148100  0.11436800  1
  H  258  1  0.60487700  0.88962300  0.02343400  1
  H  259  1  0.60214100  0.89107200  0.08784300  1
  H  260  1  0.57166300  0.91262200  0.11913200  1
  H  267  1  0.42300500  0.02631700  0.16689900  1
  H  268  1  0.51738500  0.08468800  0.20454500  1
  H  269  1  0.48733100  0.05307200  0.22642900  1
  H  270  1  0.45337600  0.05757200  0.14526600  1
  H  273  1  0.40510500  0.03277600  0.23841800  1
  H  276  1  0.58139500  0.08835700  0.12901200  1
  H  280  1  0.52281400  0.14978300  0.15407700  1
  H  281  1  0.65876900  0.50010200  0.18522000  1
  H  282  1  0.66165100  0.50056500  0.14421200  1
  H  284  1  0.50749300  0.85328100  0.14602000  1
  H  292  1  0.41871200  0.96279800  0.16881500  1
  H  293  1  0.47745300  0.93801900  0.23048600  1
  H  294  1  0.50205700  0.90376500  0.21120400  1
  H  295  1  0.44342300  0.92879000  0.14977100  1
  H  299  1  0.39774200  0.96179600  0.23994000  1
  H  300  1  0.46963000  0.99494200  0.18664900  1
  H  306  1  0.36399300  0.97378200  0.31499200  1
  H  309  1  0.40952200  0.97272500  0.28056300  1
  H  310  1  0.34214100  0.99491800  0.46869800  1
  H  311  1  0.33323700  0.99147100  0.42819000  1
  H  313  1  0.36249700  0.08522200  0.55516400  1
  H  314  1  0.36654000  0.12619900  0.55537400  1
  H  315  1  0.36569600  0.87276900  0.56095400  1
  H  317  1  0.36283600  0.91377300  0.56171600  1
  H  318  1  0.33463100  0.00747000  0.69059500  1
  H  319  1  0.34333800  0.00434700  0.65004500  1
  H  321  1  0.36491600  0.02364600  0.80401000  1
  H  323  1  0.41033800  0.02434900  0.83848000  1
  H  332  1  0.41943200  0.03369200  0.95035500  1
  H  333  1  0.47760600  0.05878200  0.88868300  1
  H  334  1  0.50230700  0.09295100  0.90807300  1
  H  335  1  0.44429600  0.06760700  0.96950900  1
  H  338  1  0.39828300  0.03509500  0.87911200  1
  H  339  1  0.46956300  0.00158800  0.93236400  1
  H  345  1  0.50786000  0.14324900  0.97323200  1
  H  346  1  0.66097800  0.49434300  0.93125200  1
  H  347  1  0.66389900  0.49387700  0.97225300  1
  H  350  1  0.54799200  0.82771200  0.99917200  1
  H  351  1  0.52338400  0.84696900  0.96491200  1
  H  359  1  0.42185400  0.97019900  0.95183200  1
  H  360  1  0.51750300  0.91210700  0.91448700  1
  H  361  1  0.48756600  0.94370700  0.89253400  1
  H  362  1  0.45209000  0.93895500  0.97353900  1
  H  366  1  0.40505500  0.96409300  0.88033800  1
  H  369  1  0.58008000  0.90865000  0.99035000  1
  H  375  1  0.74577600  0.22691900  0.03128200  1
  H  376  1  0.70144100  0.19190300  0.03262000  1
  H  385  1  0.69188000  0.36684000  0.06654300  1
  H  386  1  0.83976500  0.37325200  0.05445900  1
  H  387  1  0.80047000  0.33482100  0.03167400  1
  H  388  1  0.79830800  0.29409400  0.03598700  1
  H  389  1  0.74057500  0.30196000  0.10222700  1
  H  390  1  0.74246700  0.34242100  0.09783200  1
  H  392  1  0.76759800  0.26291400  0.08565400  1
  H  408  1  0.74156200  0.48380000  0.07155200  1
  H  409  1  0.75329600  0.42150000  0.10241900  1
  H  410  1  0.74853700  0.42176800  0.01043000  1
  H  411  1  0.68282500  0.40733700  0.06300900  1
  H  412  1  0.83065600  0.41390500  0.05115100  1
  H  429  1  0.82918900  0.58240000  0.06476300  1
  H  430  1  0.68138600  0.58867200  0.05267400  1
  H  431  1  0.75154300  0.57472400  0.01327100  1
  H  432  1  0.74315800  0.51226400  0.04404700  1
  H  433  1  0.74571900  0.57434500  0.10521000  1
  H  434  1  0.83783100  0.62310800  0.06188300  1
  H  444  1  0.73818900  0.69478900  0.01489200  1
  H  445  1  0.74009400  0.65427800  0.01879100  1
  H  446  1  0.79632700  0.70185200  0.08113800  1
  H  447  1  0.79850400  0.66108500  0.08495600  1
  H  448  1  0.68997100  0.62923300  0.04958200  1
  H  450  1  0.76552500  0.73351600  0.03177700  1
  H  455  1  0.74459000  0.76926900  0.08673300  1
  H  456  1  0.70073200  0.80443600  0.08562500  1
  H  460  1  0.81134900  0.49344500  0.14651600  1
  H  461  1  0.80858800  0.49287800  0.18731300  1
  H  462  1  0.74540900  0.45142400  0.13329400  1
  H  463  1  0.77160900  0.46589600  0.21914100  1
  H  470  1  0.73915400  0.54324100  0.13538400  1
  H  471  1  0.69694900  0.52848100  0.21729000  1
  H  476  1  0.77679900  0.46878500  0.33300200  1
  H  477  1  0.82352800  0.47180200  0.36707400  1
  H  480  1  0.78419800  0.47038700  0.25893800  1
  H  483  1  0.85321200  0.52354100  0.30397600  1
  H  484  1  0.90137300  0.52611600  0.33745900  1
  H  487  1  0.70927800  0.53308600  0.25728000  1
  H  489  1  0.75860000  0.52327300  0.29012900  1
  H  491  1  0.95902000  0.44046500  0.47184300  1
  H  497  1  0.92826400  0.47186700  0.45054800  1
  H  498  1  0.98872600  0.44469800  0.39027000  1
  H  501  1  0.90547000  0.46488000  0.37968100  1
  H  504  1  0.94439000  0.56973800  0.46756100  1
  H  512  1  0.91983300  0.53576900  0.44841200  1
  H  513  1  0.97803200  0.56087100  0.38675600  1
  H  516  1  0.89550300  0.53672900  0.37830100  1
  H  517  1  0.97353300  0.50415600  0.42995300  1
  H  519  1  0.94460400  0.42894700  0.64854600  1
  H  526  1  0.92009300  0.46291600  0.66771500  1
  H  527  1  0.97941800  0.43802600  0.72921100  1
  H  532  1  0.89713400  0.46188600  0.73799600  1
  H  533  1  0.97333700  0.49477800  0.68592500  1
  H  535  1  0.95770600  0.55841200  0.64418600  1
  H  541  1  0.92734500  0.52698700  0.66557200  1
  H  542  1  0.98878600  0.55412700  0.72563200  1
  H  545  1  0.90581900  0.53376900  0.73659500  1
  H  546  1  0.82414100  0.52640500  0.74964100  1
  H  549  1  0.85624000  0.47465600  0.81246600  1
  H  550  1  0.90399900  0.47252300  0.77881100  1
  H  553  1  0.71459600  0.46276600  0.85909400  1
  H  555  1  0.75993900  0.47428400  0.82570700  1
  H  560  1  0.77780000  0.52898000  0.78388100  1
  H  563  1  0.78204600  0.52739200  0.85751600  1
  H  570  1  0.74249200  0.45284600  0.98112100  1
  H  571  1  0.70233900  0.46682800  0.89912700  1
  H  577  1  0.74508100  0.54476800  0.98327100  1
  H  578  1  0.81275600  0.50428800  0.96997400  1
  H  579  1  0.80992100  0.50492100  0.92916700  1
  H  580  1  0.76965700  0.53130000  0.89741600  1
  C  1  1  0.30641100  0.01433900  0.28643600  1
  C  4  1  0.23666600  0.00781900  0.36547700  1
  C  7  1  0.31676200  0.99993700  0.30429100  1
  C  8  1  0.27027700  0.97063600  0.36982300  1
  C  9  1  0.25490400  0.98857100  0.35547100  1
  C  11  1  0.26457300  0.98711100  0.33244700  1
  C  13  1  0.21865600  0.00130100  0.44147400  1
  C  14  1  0.22386900  0.00316000  0.46530500  1
  C  15  1  0.23537400  0.01026400  0.38939500  1
  C  20  1  0.26908700  0.00044600  0.47555100  1
  C  21  1  0.05858200  0.34526300  0.49447400  1
  C  22  1  0.04409400  0.35657900  0.47437700  1
  C  25  1  0.05192500  0.38023300  0.47178700  1
  C  27  1  0.07713800  0.39205600  0.48903200  1
  C  31  1  0.03726500  0.61341000  0.48208900  1
  C  33  1  0.06420200  0.60257700  0.49923500  1
  C  36  1  0.02945800  0.63720000  0.48343100  1
  C  38  1  0.30913500  0.99715700  0.46160500  1
  C  39  1  0.30373800  0.99494700  0.43786600  1
  C  40  1  0.25840100  0.99717900  0.42754300  1
  C  41  1  0.25327200  0.99373000  0.40370700  1
  C  42  1  0.26972100  0.97325200  0.39365100  1
  C  45  1  0.27387200  0.00043900  0.49972500  1
  C  46  1  0.27823900  0.04325600  0.50015200  1
  C  47  1  0.27576700  0.04086200  0.61884000  1
  C  48  1  0.27997800  0.05770200  0.60250000  1
  C  49  1  0.28209700  0.04722700  0.58108000  1
  C  51  1  0.27672000  0.01967500  0.60784700  1
  C  52  1  0.27703000  0.02191900  0.51078300  1
  C  54  1  0.28296600  0.04846200  0.53806900  1
  C  55  1  0.28229900  0.05963400  0.51698900  1
  C  56  1  0.28501300  0.05897500  0.55987200  1
  C  57  1  0.28777700  0.08320200  0.56042700  1
  C  58  1  0.33190900  0.09443000  0.55755500  1
  C  59  1  0.24858000  0.12023700  0.56392900  1
  C  60  1  0.24607600  0.09629300  0.56351100  1
  C  66  1  0.29263000  0.13163000  0.56099900  1
  C  67  1  0.29382600  0.15584800  0.56019500  1
  C  68  1  0.27202700  0.16888100  0.57759300  1
  C  69  1  0.26545300  0.19250900  0.57496200  1
  C  70  1  0.28002500  0.20384100  0.55473500  1
  C  71  1  0.30443300  0.19090800  0.53797700  1
  C  72  1  0.31151900  0.16727600  0.54070600  1
  C  78  1  0.26546200  0.22601900  0.54971800  1
  C  81  1  0.08118500  0.35740700  0.51235100  1
  C  82  1  0.16088600  0.29741900  0.55784300  1
  C  83  1  0.07292600  0.36002000  0.59599400  1
  C  84  1  0.19783400  0.29550700  0.57424600  1
  C  85  1  0.22568300  0.27559100  0.57583800  1
  C  86  1  0.21826400  0.25738500  0.56055000  1
  C  87  1  0.18166700  0.25907200  0.54412100  1
  C  88  1  0.15347000  0.27884200  0.54276800  1
  C  89  1  0.04790700  0.34898500  0.61386300  1
  C  93  1  0.08696400  0.34820500  0.57582600  1
  C  94  1  0.07539800  0.35726400  0.55416500  1
  C  95  1  0.09134700  0.34697200  0.53374400  1
  C  96  1  0.11911100  0.32694500  0.53526900  1
  C  97  1  0.13136600  0.31726000  0.55666200  1
  C  98  1  0.11443200  0.32802800  0.57676800  1
  C  103  1  0.09128200  0.38083500  0.50908300  1
  C  104  1  0.08169200  0.38373800  0.59791500  1
  C  105  1  0.06408700  0.39625800  0.61651600  1
  C  109  1  0.09079300  0.61795400  0.60683900  1
  C  110  1  0.08183700  0.61509600  0.51783100  1
  C  113  1  0.04742200  0.64979200  0.50207300  1
  C  115  1  0.08062700  0.64136900  0.60351100  1
  C  116  1  0.15961400  0.70166600  0.55812800  1
  C  117  1  0.07277700  0.63878000  0.51984600  1
  C  118  1  0.19673300  0.70372500  0.54183100  1
  C  119  1  0.22431600  0.72373600  0.54034700  1
  C  120  1  0.21638300  0.74190900  0.55561500  1
  C  121  1  0.17953900  0.74009500  0.57190700  1
  C  122  1  0.15167700  0.72021200  0.57317900  1
  C  123  1  0.05782500  0.65351500  0.62133200  1
  C  127  1  0.08675000  0.65057400  0.54003300  1
  C  128  1  0.07526200  0.64144700  0.56167500  1
  C  129  1  0.09090100  0.65179500  0.58212400  1
  C  130  1  0.11828900  0.67194700  0.58063800  1
  C  131  1  0.13050100  0.68168700  0.55926400  1
  C  132  1  0.11387000  0.67086200  0.53913000  1
  C  139  1  0.29114100  0.86786100  0.55706500  1
  C  140  1  0.29175500  0.84362200  0.55732900  1
  C  141  1  0.31138700  0.83163400  0.57604300  1
  C  142  1  0.30406700  0.80797700  0.57840100  1
  C  143  1  0.27734900  0.79558900  0.56204700  1
  C  144  1  0.26063700  0.80747900  0.54253600  1
  C  145  1  0.26759100  0.83111700  0.54025800  1
  C  149  1  0.26277000  0.77338600  0.56690500  1
  C  153  1  0.27485800  0.99904400  0.61904000  1
  C  154  1  0.27812500  0.97757400  0.60796500  1
  C  156  1  0.28393900  0.95104700  0.58066200  1
  C  157  1  0.28378700  0.93987000  0.60174200  1
  C  158  1  0.27983000  0.95624100  0.61859100  1
  C  159  1  0.28567600  0.94054000  0.55885600  1
  C  160  1  0.28220400  0.95227900  0.53766400  1
  C  162  1  0.27610000  0.97982000  0.51092500  1
  C  163  1  0.27454700  0.95862300  0.49996200  1
  C  164  1  0.27910600  0.94178600  0.51628200  1
  C  165  1  0.28772700  0.91630200  0.55827500  1
  C  166  1  0.24539100  0.90351400  0.55605200  1
  C  167  1  0.24716800  0.87956700  0.55534300  1
  C  168  1  0.33177600  0.90477800  0.56001500  1
  C  173  1  0.31033700  0.00214600  0.65715400  1
  C  174  1  0.30505700  0.00414800  0.68092000  1
  C  175  1  0.25975700  0.00187400  0.69127700  1
  C  176  1  0.25472700  0.00503600  0.71516400  1
  C  177  1  0.27169600  0.02527100  0.72551000  1
  C  180  1  0.27207900  0.02759300  0.74937100  1
  C  181  1  0.03005200  0.36157000  0.63253300  1
  C  183  1  0.03753600  0.38538900  0.63377500  1
  C  186  1  0.07652900  0.60674700  0.62687800  1
  C  190  1  0.05110800  0.61857000  0.64405300  1
  C  192  1  0.04319800  0.64221200  0.64141100  1
  C  194  1  0.27021100  0.99900100  0.64321800  1
  C  195  1  0.22502400  0.99626900  0.65348600  1
  C  196  1  0.21992900  0.99792500  0.67733600  1
  C  197  1  0.23608200  0.98847200  0.72922600  1
  C  202  1  0.25586600  0.00961900  0.76346400  1
  C  203  1  0.26515300  0.01077000  0.78654200  1
  C  206  1  0.30674600  0.98305200  0.83224700  1
  C  207  1  0.31737600  0.99844800  0.81449500  1
  C  210  1  0.23709600  0.99063200  0.75317400  1
  C  213  1  0.58917100  0.11670500  0.10740400  1
  C  214  1  0.58355700  0.11398800  0.01821700  1
  C  217  1  0.56608800  0.10125400  0.99972700  1
  C  219  1  0.57900800  0.14012400  0.10405500  1
  C  220  1  0.65417400  0.20194400  0.05922900  1
  C  221  1  0.57329800  0.13755500  0.02029700  1
  C  222  1  0.55609600  0.15223300  0.12187700  1
  C  225  1  0.58648500  0.14944600  0.04055600  1
  C  226  1  0.57516800  0.14007900  0.06212400  1
  C  227  1  0.58948100  0.15062900  0.08269600  1
  C  228  1  0.61524600  0.17127900  0.08136600  1
  C  229  1  0.62708300  0.18132000  0.06008200  1
  C  230  1  0.61201500  0.17021700  0.03982800  1
  C  234  1  0.64353700  0.22024600  0.07419300  1
  C  235  1  0.54696600  0.14826000  0.00266500  1
  C  239  1  0.57849900  0.85681500  0.01426900  1
  C  240  1  0.57297000  0.85912100  0.09806200  1
  C  241  1  0.54663100  0.84836400  0.11566000  1
  C  243  1  0.58616100  0.84730300  0.07775900  1
  C  244  1  0.57480500  0.85674100  0.05622500  1
  C  245  1  0.58910700  0.84627500  0.03560700  1
  C  246  1  0.61491100  0.82563400  0.03687000  1
  C  247  1  0.62668400  0.81548000  0.05810900  1
  C  248  1  0.61165900  0.82651800  0.07840700  1
  C  253  1  0.64271400  0.77661500  0.04374300  1
  C  254  1  0.65351900  0.79477200  0.05885600  1
  C  255  1  0.58813400  0.88029900  0.01101100  1
  C  256  1  0.58316100  0.88269100  0.10020000  1
  C  257  1  0.56558900  0.89537500  0.11870200  1
  C  261  1  0.45211100  0.03665300  0.19882400  1
  C  262  1  0.44196600  0.03870600  0.17524400  1
  C  263  1  0.45948500  0.05718500  0.16251000  1
  C  264  1  0.48724200  0.07422900  0.17302900  1
  C  265  1  0.49614000  0.07284700  0.19673200  1
  C  266  1  0.47843600  0.05428800  0.20952700  1
  C  271  1  0.43881700  0.01641800  0.21073300  1
  C  272  1  0.41325500  0.01720300  0.23149200  1
  C  275  1  0.57481500  0.10547500  0.12742300  1
  C  278  1  0.54938800  0.11729100  0.14459400  1
  C  279  1  0.54145500  0.14092800  0.14195200  1
  C  283  1  0.52884500  0.86111300  0.13423700  1
  C  285  1  0.39806900  0.99789800  0.24261900  1
  C  286  1  0.44597700  0.95381300  0.20150300  1
  C  287  1  0.46892500  0.93600400  0.21361700  1
  C  288  1  0.48342700  0.91589100  0.20234200  1
  C  289  1  0.47542300  0.91321600  0.17871400  1
  C  290  1  0.44999600  0.93038300  0.16689000  1
  C  291  1  0.43576500  0.95043900  0.17809200  1
  C  296  1  0.45004500  0.99574000  0.20140100  1
  C  297  1  0.43561500  0.97519900  0.21197600  1
  C  298  1  0.40978500  0.97658700  0.23260400  1
  C  302  1  0.53765100  0.88482300  0.13565300  1
  C  304  1  0.33291500  0.01358400  0.26603300  1
  C  305  1  0.35491400  0.98447100  0.30186100  1
  C  307  1  0.37096800  0.99881500  0.26323600  1
  C  308  1  0.38154100  0.98388200  0.28157300  1
  C  312  1  0.33422000  0.11843400  0.55763100  1
  C  316  1  0.33339100  0.88075800  0.55962400  1
  C  320  1  0.35570300  0.01287500  0.81705300  1
  C  322  1  0.38226700  0.01325200  0.83736300  1
  C  324  1  0.33320500  0.98359200  0.85267000  1
  C  325  1  0.37142000  0.99916000  0.85560000  1
  C  326  1  0.44637600  0.04284000  0.91764600  1
  C  327  1  0.46915000  0.06072500  0.90556800  1
  C  328  1  0.48378700  0.08077500  0.91691700  1
  C  329  1  0.47601000  0.08332900  0.94057600  1
  C  330  1  0.45072600  0.06609600  0.95237200  1
  C  331  1  0.43637000  0.04610300  0.94109500  1
  C  336  1  0.43587100  0.02151200  0.90707600  1
  C  337  1  0.41017000  0.02025100  0.88640400  1
  C  341  1  0.53811700  0.11175000  0.98366700  1
  C  343  1  0.45007000  0.00089700  0.91757800  1
  C  344  1  0.52919400  0.13545000  0.98504500  1
  C  348  1  0.55608900  0.84464100  0.99725800  1
  C  349  1  0.54151600  0.85591100  0.97715200  1
  C  352  1  0.54895400  0.87959200  0.97458900  1
  C  353  1  0.45170500  0.95999300  0.92002500  1
  C  354  1  0.44109400  0.95786500  0.94355200  1
  C  355  1  0.45854800  0.93940100  0.95632500  1
  C  356  1  0.48674700  0.92247000  0.94590000  1
  C  357  1  0.49599100  0.92388000  0.92222700  1
  C  358  1  0.47835100  0.94242800  0.90939100  1
  C  363  1  0.43869300  0.98028100  0.90814800  1
  C  364  1  0.39836500  0.99992100  0.87627100  1
  C  365  1  0.41328700  0.97962300  0.88734000  1
  C  368  1  0.57379600  0.89150100  0.99189100  1
  C  371  1  0.69229300  0.20477300  0.04358800  1
  C  372  1  0.71879200  0.22517900  0.04289900  1
  C  373  1  0.70834800  0.24300500  0.05823400  1
  C  374  1  0.67014700  0.24054100  0.07366700  1
  C  378  1  0.76672900  0.36625600  0.06086900  1
  C  379  1  0.77194100  0.34243800  0.06439100  1
  C  380  1  0.75573600  0.33245600  0.08494800  1
  C  381  1  0.75505600  0.30863300  0.08761300  1
  C  382  1  0.77020200  0.29422300  0.06967900  1
  C  383  1  0.78823800  0.30416100  0.04944000  1
  C  384  1  0.78955200  0.32806900  0.04692300  1
  C  391  1  0.76027400  0.27123500  0.07122300  1
  C  393  1  0.74232800  0.47629900  0.10571700  1
  C  395  1  0.74857600  0.44958700  0.07815800  1
  C  396  1  0.74999700  0.43860300  0.09934700  1
  C  397  1  0.74536600  0.45490700  0.11619400  1
  C  398  1  0.75102300  0.43841000  0.05661400  1
  C  399  1  0.74811300  0.44949100  0.03513600  1
  C  401  1  0.74259500  0.47680400  0.00859900  1
  C  402  1  0.74720500  0.43888200  0.01378500  1
  C  403  1  0.75586800  0.41423900  0.05659600  1
  C  404  1  0.71586400  0.40026800  0.06080600  1
  C  405  1  0.72134300  0.37653600  0.06305500  1
  C  406  1  0.80642600  0.38020200  0.05579300  1
  C  407  1  0.80112900  0.40402600  0.05390300  1
  C  413  1  0.73883700  0.49747800  0.11747700  1
  C  414  1  0.74929600  0.55757700  0.01631400  1
  C  415  1  0.74325800  0.51981500  0.00988900  1
  C  417  1  0.74823800  0.54655600  0.03748600  1
  C  418  1  0.74990800  0.55772700  0.05904800  1
  C  419  1  0.74651000  0.54662400  0.08049900  1
  C  421  1  0.74055400  0.51929400  0.10699000  1
  C  422  1  0.74061800  0.54036200  0.11818700  1
  C  423  1  0.74471100  0.55722800  0.10184200  1
  C  424  1  0.75446800  0.58190800  0.05912700  1
  C  425  1  0.79957600  0.59221900  0.06200400  1
  C  426  1  0.71432900  0.59581000  0.05497300  1
  C  427  1  0.71953700  0.61958100  0.05299100  1
  C  428  1  0.80460600  0.61607200  0.06034600  1
  C  435  1  0.74534900  0.54125000  0.99944600  1
  C  437  1  0.76477000  0.62997200  0.05539000  1
  C  438  1  0.76972800  0.65385300  0.05219500  1
  C  439  1  0.78751800  0.66801200  0.06979800  1
  C  440  1  0.78617500  0.69195100  0.06757600  1
  C  441  1  0.76799700  0.70213700  0.04749000  1
  C  442  1  0.75271500  0.68794000  0.02941300  1
  C  443  1  0.75335600  0.66408800  0.03179500  1
  C  449  1  0.75824700  0.72516400  0.04620100  1
  C  451  1  0.69149200  0.79168700  0.07453400  1
  C  452  1  0.71771000  0.77119000  0.07509000  1
  C  453  1  0.70718000  0.75353400  0.05957000  1
  C  454  1  0.66908200  0.75624900  0.04411800  1
  C  457  1  0.77901500  0.49462800  0.15452200  1
  C  458  1  0.77722300  0.49409300  0.17847500  1
  C  459  1  0.75680100  0.47972900  0.22714100  1
  C  464  1  0.73671400  0.49688200  0.14171300  1
  C  465  1  0.73327300  0.49603000  0.19016500  1
  C  466  1  0.69105000  0.49857900  0.17724200  1
  C  467  1  0.73270600  0.49664500  0.21439700  1
  C  468  1  0.69267800  0.49879400  0.15322200  1
  C  469  1  0.71339200  0.51560600  0.22610600  1
  C  472  1  0.86708300  0.49937700  0.35581200  1
  C  473  1  0.83022200  0.48291900  0.35398500  1
  C  474  1  0.80221600  0.48126400  0.33412400  1
  C  475  1  0.80938300  0.49654400  0.31588900  1
  C  479  1  0.76389300  0.48235900  0.25073500  1
  C  481  1  0.84591000  0.51302000  0.31748700  1
  C  482  1  0.87425400  0.51444100  0.33720600  1
  C  485  1  0.72095100  0.51834800  0.24970400  1
  C  486  1  0.74759300  0.50213600  0.26231300  1
  C  488  1  0.76251100  0.50735600  0.28438200  1
  C  490  1  0.96438200  0.44085200  0.45454000  1
  C  492  1  0.95559000  0.46137900  0.41830700  1
  C  493  1  0.94667400  0.45942100  0.44200800  1
  C  494  1  0.99114100  0.42365200  0.44369500  1
  C  495  1  0.99881700  0.42494100  0.41989300  1
  C  496  1  0.98088900  0.44358800  0.40729800  1
  C  499  1  0.94141600  0.48152200  0.40649500  1
  C  500  1  0.91388400  0.48053500  0.38634200  1
  C  503  1  0.89674200  0.50061800  0.37560200  1
  C  505  1  0.95286500  0.50319500  0.41555200  1
  C  506  1  0.94677700  0.54498800  0.41573000  1
  C  507  1  0.96949000  0.56286000  0.40362700  1
  C  508  1  0.98408800  0.58291100  0.41499200  1
  C  509  1  0.97622200  0.58546500  0.43864900  1
  C  510  1  0.95082400  0.56824900  0.45042000  1
  C  511  1  0.93661400  0.54823500  0.43915500  1
  C  514  1  0.93672800  0.52359200  0.40528100  1
  C  515  1  0.90888200  0.52203000  0.38528400  1
  C  520  1  0.94766400  0.45382100  0.70031000  1
  C  521  1  0.97075100  0.43602100  0.71235700  1
  C  522  1  0.98523800  0.41595200  0.70099500  1
  C  523  1  0.97699900  0.41332900  0.67737500  1
  C  524  1  0.95132600  0.43049100  0.66565600  1
  C  525  1  0.93719500  0.45051600  0.67692400  1
  C  528  1  0.95296800  0.49565400  0.70042900  1
  C  529  1  0.93746200  0.47518900  0.71078600  1
  C  530  1  0.91008300  0.47664000  0.73094100  1
  C  531  1  0.89782900  0.49799700  0.74070500  1
  C  534  1  0.96325200  0.55804600  0.66147600  1
  C  536  1  0.95510600  0.53748200  0.69772400  1
  C  537  1  0.94577300  0.53946300  0.67406200  1
  C  538  1  0.99015400  0.57525900  0.67222700  1
  C  539  1  0.99827900  0.57392700  0.69599300  1
  C  540  1  0.98058200  0.55526800  0.70864500  1
  C  543  1  0.94138700  0.51728100  0.70956500  1
  C  544  1  0.91432900  0.51815200  0.72987300  1
  C  547  1  0.84848500  0.48519200  0.79902400  1
  C  548  1  0.87655900  0.48402200  0.77920200  1
  C  551  1  0.74926000  0.49470600  0.85409400  1
  C  552  1  0.72462400  0.47776700  0.86669300  1
  C  554  1  0.76411800  0.49002400  0.83188700  1
  C  556  1  0.86864700  0.49908500  0.76066100  1
  C  557  1  0.83138700  0.51531400  0.76268100  1
  C  558  1  0.80361600  0.51670400  0.78263800  1
  C  559  1  0.81147400  0.50139700  0.80078800  1
  C  562  1  0.76353000  0.51479500  0.86575500  1
  C  564  1  0.74347100  0.45573600  0.99832300  1
  C  565  1  0.74064700  0.49861700  0.99901800  1
  C  566  1  0.73853100  0.49920300  0.97477500  1
  C  567  1  0.69473000  0.49634200  0.96325200  1
  C  568  1  0.69307700  0.49656300  0.93923500  1
  C  569  1  0.71714300  0.48016800  0.89033500  1
  C  572  1  0.73444800  0.49953900  0.90209100  1
  C  573  1  0.73500400  0.50008000  0.92632200  1
  C  574  1  0.77872700  0.50295900  0.93801100  1
  C  575  1  0.78057200  0.50240300  0.96196500  1
  C  576  1  0.75646300  0.51711400  0.88938400  1
  N  3  1  0.29474500  0.00044100  0.32415700  1
  N  26  1  0.01075600  0.40869000  0.45729800  1
  N  29  1  0.03407400  0.39129300  0.45398200  1
  N  32  1  0.01666700  0.59981600  0.46713200  1
  N  50  1  0.28029300  0.02449000  0.58527900  1
  N  53  1  0.27980800  0.02593800  0.53344000  1
  N  65  1  0.24033200  0.23773000  0.56384700  1
  N  138  1  0.23849000  0.76159500  0.55250200  1
  N  155  1  0.28061600  0.97356300  0.58530000  1
  N  161  1  0.28058300  0.97501800  0.53346000  1
  N  184  1  0.01705100  0.39896700  0.64878000  1
  N  188  1  0.00978000  0.59014900  0.65854400  1
  N  189  1  0.03317700  0.60752600  0.66184400  1
  N  209  1  0.29526000  0.99729200  0.79463600  1
  N  274  1  0.50775300  0.08899600  0.15918500  1
  N  277  1  0.53155600  0.10626000  0.16241300  1
  N  301  1  0.49321200  0.89538600  0.16768400  1
  N  303  1  0.51711100  0.89862300  0.15045300  1
  N  340  1  0.49379300  0.10114100  0.95163600  1
  N  342  1  0.51765600  0.09790900  0.96888100  1
  N  367  1  0.50718300  0.90773500  0.95980500  1
  N  370  1  0.53132400  0.89056000  0.95668300  1
  N  377  1  0.73038400  0.26287300  0.05687300  1
  N  394  1  0.74402700  0.47211700  0.08297500  1
  N  400  1  0.74538100  0.47215100  0.03113000  1
  N  416  1  0.74478900  0.52399000  0.03263600  1
  N  420  1  0.74397400  0.52395600  0.08448100  1
  N  436  1  0.72890200  0.73357200  0.06077700  1
  N  478  1  0.78703400  0.49316400  0.29631300  1
  N  502  1  0.99422200  0.60320200  0.44976100  1
  N  518  1  0.99491700  0.39558700  0.66624500  1
  N  561  1  0.78915000  0.50439700  0.82042600  1
