# generated using pymatgen
data_Cd4H26C40O17
_symmetry_space_group_name_H-M   'P 1'
_cell_length_a   12.59756500
_cell_length_b   14.91100000
_cell_length_c   14.95811000
_cell_angle_alpha   89.99966000
_cell_angle_beta   90.00000000
_cell_angle_gamma   90.00000000
_symmetry_Int_Tables_number   1
_chemical_formula_structural   Cd4H26C40O17
_chemical_formula_sum   'Cd8 H52 C80 O34'
_cell_volume   2809.76566208
_cell_formula_units_Z   2
loop_
 _symmetry_equiv_pos_site_id
 _symmetry_equiv_pos_as_xyz
  1  'x, y, z'
loop_
 _atom_site_type_symbol
 _atom_site_label
 _atom_site_symmetry_multiplicity
 _atom_site_fract_x
 _atom_site_fract_y
 _atom_site_fract_z
 _atom_site_occupancy
  C  C1  1  0.14936000  0.80048000  0.91738000  1.0
  C  C2  1  0.14666000  0.20902000  0.09655000  1.0
  C  C3  1  0.14633000  0.91423000  0.20913000  1.0
  C  C4  1  0.15616000  0.09021000  0.80391000  1.0
  C  C5  1  0.84838000  0.80139000  0.91422000  1.0
  C  C6  1  0.84582000  0.20710000  0.09002000  1.0
  C  C7  1  0.84326000  0.91877000  0.20566000  1.0
  C  C8  1  0.85256000  0.09447000  0.79972000  1.0
  C  C9  1  0.65268000  0.70704000  0.59131000  1.0
  C  C10  1  0.65312000  0.30166000  0.41502000  1.0
  C  C11  1  0.65228000  0.59329000  0.30167000  1.0
  C  C12  1  0.65204000  0.41726000  0.70753000  1.0
  C  C13  1  0.35186000  0.70897000  0.59550000  1.0
  C  C14  1  0.35181000  0.30042000  0.41627000  1.0
  C  C15  1  0.34904000  0.59186000  0.30161000  1.0
  C  C16  1  0.34848000  0.41563000  0.70723000  1.0
  C  C17  1  0.27776000  0.17926000  0.29886000  1.0
  C  C18  1  0.31556000  0.20682000  0.20425000  1.0
  C  C19  1  0.16278000  0.20640000  0.27442000  1.0
  C  C20  1  0.20136000  0.23433000  0.18095000  1.0
  C  C21  1  0.29824000  0.27552000  0.33126000  1.0
  C  C22  1  0.18402000  0.30299000  0.30792000  1.0
  C  C23  1  0.22182000  0.33057000  0.21332000  1.0
  C  C24  1  0.33684000  0.30343000  0.23777000  1.0
  C  C25  1  0.85508000  0.26612000  0.25877000  1.0
  C  C26  1  0.78854000  0.20194000  0.31789000  1.0
  C  C27  1  0.77072000  0.34060000  0.27115000  1.0
  C  C28  1  0.70480000  0.27606000  0.32908000  1.0
  C  C29  1  0.79456000  0.23271000  0.17605000  1.0
  C  C30  1  0.71080000  0.30684000  0.18724000  1.0
  C  C31  1  0.64430000  0.24267500  0.24635000  1.0
  C  C32  1  0.72862000  0.16819000  0.23396000  1.0
  C  C33  1  0.29504000  0.18623000  0.70708000  1.0
  C  C34  1  0.35712000  0.24828000  0.77163000  1.0
  C  C35  1  0.23582000  0.26859000  0.66845000  1.0
  C  C36  1  0.29730000  0.32944000  0.73332000  1.0
  C  C37  1  0.20746000  0.17637000  0.77798000  1.0
  C  C38  1  0.14766000  0.25754000  0.73970000  1.0
  C  C39  1  0.20972000  0.31959000  0.80423000  1.0
  C  C40  1  0.26892000  0.23723000  0.84290000  1.0
  C  C41  1  0.22148000  0.79707000  0.33058000  1.0
  C  C42  1  0.33572000  0.77116000  0.30245000  1.0
  C  C43  1  0.18210000  0.70215000  0.30468000  1.0
  C  C44  1  0.29560000  0.67734000  0.27622000  1.0
  C  C45  1  0.19966000  0.82870000  0.23451000  1.0
  C  C46  1  0.15954000  0.73489000  0.20825000  1.0
  C  C47  1  0.27378000  0.70898000  0.18014000  1.0
  C  C48  1  0.31316000  0.80389000  0.20604000  1.0
  C  C49  1  0.70980000  0.70340000  0.81906000  1.0
  C  C50  1  0.76852000  0.66706000  0.73561000  1.0
  C  C51  1  0.64520000  0.76817000  0.75911000  1.0
  C  C52  1  0.70454000  0.73218000  0.67692000  1.0
  C  C53  1  0.79582000  0.77580000  0.82896000  1.0
  C  C54  1  0.73185000  0.84093000  0.77022000  1.0
  C  C55  1  0.79056000  0.80458000  0.68683000  1.0
  C  C56  1  0.85516000  0.73982000  0.74675000  1.0
  C  C57  1  0.72906000  0.77280000  0.16686000  1.0
  C  C58  1  0.64262000  0.76117000  0.23953000  1.0
  C  C59  1  0.78892000  0.68986000  0.20349000  1.0
  C  C60  1  0.70310000  0.67946000  0.27580000  1.0
  C  C61  1  0.79232000  0.83265000  0.23142000  1.0
  C  C62  1  0.85280000  0.75094000  0.26766000  1.0
  C  C63  1  0.76640000  0.73931000  0.34032000  1.0
  C  C64  1  0.70652000  0.82224000  0.30372000  1.0
  C  C65  1  0.77660000  0.21113000  0.67827000  1.0
  C  C66  1  0.81756000  0.30586000  0.70305000  1.0
  C  C67  1  0.66321000  0.23811000  0.70774000  1.0
  C  C68  1  0.70490000  0.33172000  0.73287000  1.0
  C  C69  1  0.79981000  0.18000000  0.77424000  1.0
  C  C70  1  0.68716000  0.20586000  0.80406000  1.0
  C  C71  1  0.72810000  0.30059000  0.82884000  1.0
  C  C72  1  0.84150000  0.27360000  0.79938000  1.0
  C  C73  1  0.27574000  0.83058000  0.71233000  1.0
  C  C74  1  0.31558000  0.80453000  0.80679000  1.0
  C  C75  1  0.16171000  0.80190000  0.73839000  1.0
  C  C76  1  0.20230000  0.77553500  0.83177000  1.0
  C  C77  1  0.29788000  0.73436000  0.68054000  1.0
  C  C78  1  0.18462000  0.70533000  0.70549000  1.0
  C  C79  1  0.22448000  0.67930000  0.79995000  1.0
  C  C80  1  0.33844000  0.70797000  0.77390000  1.0
  Cd  Cd1  1  0.00044000  0.95228000  0.83094000  1.0
  Cd  Cd2  1  0.99824000  0.05677000  0.17830000  1.0
  Cd  Cd3  1  0.99656000  0.82972000  0.05583000  1.0
  Cd  Cd4  1  0.00162000  0.17909000  0.95337000  1.0
  Cd  Cd5  1  0.49956000  0.55658000  0.67826000  1.0
  Cd  Cd6  1  0.50204000  0.45233000  0.33082000  1.0
  Cd  Cd7  1  0.49926000  0.67931000  0.45333000  1.0
  Cd  Cd8  1  0.50278000  0.32983000  0.55555000  1.0
  H  H1  1  0.17082000  0.08224000  0.06377000  1.0
  H  H2  1  0.82828000  0.92870000  0.94676000  1.0
  H  H3  1  0.67236000  0.42886000  0.44825000  1.0
  H  H4  1  0.32862000  0.58225000  0.56204000  1.0
  H  H5  1  0.30113000  0.11706000  0.33462000  1.0
  H  H6  1  0.36924000  0.16710000  0.16068000  1.0
  H  H7  1  0.09068000  0.16633000  0.28924000  1.0
  H  H8  1  0.13024000  0.34268000  0.35143000  1.0
  H  H9  1  0.19841000  0.39273000  0.17753000  1.0
  H  H10  1  0.40898000  0.34337000  0.22280000  1.0
  H  H11  1  0.94214000  0.27634000  0.26277000  1.0
  H  H12  1  0.82018000  0.15890000  0.37229000  1.0
  H  H13  1  0.78828000  0.41171000  0.28739000  1.0
  H  H14  1  0.67916000  0.34988000  0.13285000  1.0
  H  H15  1  0.55726000  0.23241000  0.24230000  1.0
  H  H16  1  0.71086000  0.09716000  0.21758000  1.0
  H  H17  1  0.32980000  0.13070500  0.66721000  1.0
  H  H18  1  0.44360000  0.24554000  0.78527000  1.0
  H  H19  1  0.22167000  0.28256000  0.59655000  1.0
  H  H20  1  0.06120000  0.26022000  0.72596000  1.0
  H  H21  1  0.17494000  0.37512000  0.84409000  1.0
  H  H22  1  0.28262000  0.22334000  0.91489000  1.0
  H  H23  1  0.19962000  0.83380000  0.39247000  1.0
  H  H24  1  0.40868000  0.78603000  0.34127000  1.0
  H  H25  1  0.12842000  0.65950000  0.34541000  1.0
  H  H26  1  0.08662000  0.72015000  0.16931000  1.0
  H  H27  1  0.29566000  0.67224000  0.11826000  1.0
  H  H28  1  0.36680000  0.84655500  0.16530000  1.0
  H  H29  1  0.67702000  0.66195000  0.87420000  1.0
  H  H30  1  0.78402000  0.59545000  0.72018000  1.0
  H  H31  1  0.55848000  0.78040000  0.76300000  1.0
  H  H32  1  0.71660000  0.91264000  0.78546000  1.0
  H  H33  1  0.82339000  0.84604000  0.63172000  1.0
  H  H34  1  0.94186000  0.72760000  0.74280000  1.0
  H  H35  1  0.71368000  0.78763000  0.09529000  1.0
  H  H36  1  0.55584000  0.76422000  0.22749000  1.0
  H  H37  1  0.82244000  0.63468000  0.16241000  1.0
  H  H38  1  0.93958000  0.74793000  0.27978000  1.0
  H  H39  1  0.78224000  0.72438000  0.41177000  1.0
  H  H40  1  0.67302000  0.87742000  0.34481000  1.0
  H  H41  1  0.79694000  0.17378000  0.61637000  1.0
  H  H42  1  0.87088000  0.34787000  0.66135000  1.0
  H  H43  1  0.58934000  0.22365000  0.66998000  1.0
  H  H44  1  0.63386000  0.16384000  0.84577000  1.0
  H  H45  1  0.70774000  0.33793000  0.89073000  1.0
  H  H46  1  0.91528000  0.28794000  0.83731000  1.0
  H  H47  1  0.29720000  0.89279000  0.67575000  1.0
  H  H48  1  0.36922000  0.84547000  0.84925000  1.0
  H  H49  1  0.08850000  0.84058000  0.72376000  1.0
  H  H50  1  0.13108000  0.66435000  0.66297000  1.0
  H  H51  1  0.20306000  0.61705000  0.83648000  1.0
  H  H52  1  0.41158000  0.66912000  0.78836000  1.0
  O  O1  1  0.10824000  0.87892000  0.92927000  1.0
  O  O2  1  0.11504000  0.12764000  0.08189000  1.0
  O  O3  1  0.10718000  0.92638000  0.13017000  1.0
  O  O4  1  0.11268000  0.07987000  0.88158000  1.0
  O  O5  1  0.12302000  0.74086000  0.97665000  1.0
  O  O6  1  0.11980000  0.26811000  0.03704000  1.0
  O  O7  1  0.12062000  0.97451000  0.26800000  1.0
  O  O8  1  0.12936000  0.03075000  0.74453000  1.0
  O  O9  1  0.88256000  0.88225000  0.92803000  1.0
  O  O10  1  0.88924000  0.12929000  0.07940000  1.0
  O  O11  1  0.88652000  0.92932000  0.12799000  1.0
  O  O12  1  0.89146000  0.08246000  0.87874000  1.0
  O  O13  1  0.87653000  0.74185000  0.97288000  1.0
  O  O14  1  0.87324000  0.26692000  0.03128000  1.0
  O  O15  1  0.87026000  0.97801000  0.26516000  1.0
  O  O16  1  0.87894000  0.03448000  0.74081000  1.0
  O  O17  1  0.99960000  0.00446000  0.00464000  1.0
  O  O18  1  0.60962000  0.62917000  0.58020000  1.0
  O  O19  1  0.61848000  0.38238000  0.42883500  1.0
  O  O20  1  0.61056000  0.58207000  0.37990000  1.0
  O  O21  1  0.61162000  0.42874000  0.62899000  1.0
  O  O22  1  0.62592000  0.76702000  0.53258000  1.0
  O  O23  1  0.62430000  0.24198000  0.47334000  1.0
  O  O24  1  0.62592000  0.53364000  0.24242000  1.0
  O  O25  1  0.62510000  0.47680000  0.76673000  1.0
  O  O26  1  0.38400000  0.62770000  0.58090000  1.0
  O  O27  1  0.39236000  0.37906000  0.42809000  1.0
  O  O28  1  0.38978000  0.58046000  0.38009000  1.0
  O  O29  1  0.39034000  0.42662000  0.62896000  1.0
  O  O30  1  0.37946000  0.76820000  0.53631000  1.0
  O  O31  1  0.37800000  0.24089000  0.47560000  1.0
  O  O32  1  0.37556000  0.53199000  0.24254000  1.0
  O  O33  1  0.37484000  0.47548000  0.76635000  1.0
  O  O34  1  0.50030000  0.50456000  0.50451000  1.0
