# generated using pymatgen
data_Mn2H16C26N10ClO4
_symmetry_space_group_name_H-M   'P 1'
_cell_length_a   9.96795000
_cell_length_b   16.41293709
_cell_length_c   24.26975000
_cell_angle_alpha   77.56121313
_cell_angle_beta   90.02069000
_cell_angle_gamma   72.32019877
_symmetry_Int_Tables_number   1
_chemical_formula_structural   Mn2H16C26N10ClO4
_chemical_formula_sum   'Mn8 H64 C104 N40 Cl4 O16'
_cell_volume   3685.02965780
_cell_formula_units_Z   4
loop_
 _symmetry_equiv_pos_site_id
 _symmetry_equiv_pos_as_xyz
  1  'x, y, z'
loop_
 _atom_site_type_symbol
 _atom_site_label
 _atom_site_symmetry_multiplicity
 _atom_site_fract_x
 _atom_site_fract_y
 _atom_site_fract_z
 _atom_site_occupancy
  Mn  Mn0  1  0.46113000  0.25259000  0.59572000  1
  Mn  Mn1  1  0.31757000  0.42741000  0.66329000  1
  Mn  Mn2  1  0.71366000  0.74770000  0.90415000  1
  Mn  Mn3  1  0.74517000  0.57278000  0.83697000  1
  Mn  Mn4  1  0.53992000  0.74712000  0.40430000  1
  Mn  Mn5  1  0.68241000  0.57254000  0.33683000  1
  Mn  Mn6  1  0.28597000  0.25226000  0.09590000  1
  Mn  Mn7  1  0.25493000  0.42714000  0.16302000  1
  H  H8  1  0.34836000  0.97926000  0.52932000  1
  H  H9  1  0.27826000  0.76585000  0.55741000  1
  H  H10  1  0.46242000  0.41931000  0.49452000  1
  H  H11  1  0.33637000  0.48128000  0.39843000  1
  H  H12  1  0.25266000  0.24597000  0.40356000  1
  H  H13  1  0.41154000  0.88281000  0.60613000  1
  H  H14  1  0.50972000  0.77070000  0.69148000  1
  H  H15  1  0.72460000  0.93417000  0.74460000  1
  H  H16  1  0.61949000  0.05263000  0.65899000  1
  H  H17  1  0.49233000  0.35168000  0.78522000  1
  H  H18  1  0.63438000  0.40429000  0.84691000  1
  H  H19  1  0.56545000  0.63672000  0.72513000  1
  H  H20  1  0.04349000  0.78074000  0.52242000  1
  H  H21  1  0.87411000  0.78599000  0.44555000  1
  H  H22  1  0.07793000  0.51369000  0.45045000  1
  H  H23  1  0.25302000  0.50715000  0.52679000  1
  H  H24  1  0.32755000  0.02093000  0.97046000  1
  H  H25  1  0.04314000  0.23447000  0.94263000  1
  H  H26  1  0.88135000  0.58099000  0.00513000  1
  H  H27  1  0.81790000  0.51882000  0.10126000  1
  H  H28  1  0.49897000  0.75407000  0.09651000  1
  H  H29  1  0.29509000  0.11727000  0.89406000  1
  H  H30  1  0.28060000  0.22945000  0.80873000  1
  H  H31  1  0.65865000  0.06606000  0.75540000  1
  H  H32  1  0.67280000  0.94762000  0.84114000  1
  H  H33  1  0.84406000  0.64857000  0.71480000  1
  H  H34  1  0.03839000  0.59569000  0.65306000  1
  H  H35  1  0.20190000  0.36340000  0.77499000  1
  H  H36  1  0.82497000  0.21952000  0.97749000  1
  H  H37  1  0.66180000  0.21314000  0.05448000  1
  H  H38  1  0.59069000  0.48571000  0.04994000  1
  H  H39  1  0.75816000  0.49334000  0.97353000  1
  H  H40  1  0.65161000  0.02071000  0.47076000  1
  H  H41  1  0.72143000  0.23427000  0.44274000  1
  H  H42  1  0.53767000  0.58060000  0.50554000  1
  H  H43  1  0.66348000  0.51880000  0.60168000  1
  H  H44  1  0.74716000  0.75417000  0.59640000  1
  H  H45  1  0.58840000  0.11725000  0.39389000  1
  H  H46  1  0.49035000  0.22930000  0.30857000  1
  H  H47  1  0.27553000  0.06580000  0.25539000  1
  H  H48  1  0.38040000  0.94741000  0.34102000  1
  H  H49  1  0.50796000  0.64822000  0.21484000  1
  H  H50  1  0.36578000  0.59579000  0.15307000  1
  H  H51  1  0.43469000  0.36333000  0.27493000  1
  H  H52  1  0.95651000  0.21916000  0.47748000  1
  H  H53  1  0.12594000  0.21388000  0.55438000  1
  H  H54  1  0.92207000  0.48611000  0.54967000  1
  H  H55  1  0.74699000  0.49284000  0.47324000  1
  H  H56  1  0.67239000  0.97904000  0.02954000  1
  H  H57  1  0.95669000  0.76548000  0.05731000  1
  H  H58  1  0.11884000  0.41907000  0.99482000  1
  H  H59  1  0.18244000  0.48123000  0.89867000  1
  H  H60  1  0.50122000  0.24578000  0.90359000  1
  H  H61  1  0.70514000  0.88266000  0.10600000  1
  H  H62  1  0.71951000  0.77054000  0.19137000  1
  H  H63  1  0.34136000  0.93397000  0.24463000  1
  H  H64  1  0.32732000  0.05243000  0.15885000  1
  H  H65  1  0.15596000  0.35146000  0.28518000  1
  H  H66  1  0.96161000  0.40422000  0.34693000  1
  H  H67  1  0.79797000  0.63655000  0.22501000  1
  H  H68  1  0.17516000  0.78058000  0.02254000  1
  H  H69  1  0.33808000  0.78708000  0.94545000  1
  H  H70  1  0.40931000  0.51452000  0.95001000  1
  H  H71  1  0.24205000  0.50683000  0.02646000  1
  C  C72  1  0.41544000  0.38082000  0.47391000  1
  C  C73  1  0.34453000  0.41467000  0.42088000  1
  C  C74  1  0.29850000  0.28610000  0.42326000  1
  C  C75  1  0.37037000  0.24991000  0.47682000  1
  C  C76  1  0.38562000  0.16145000  0.50775000  1
  C  C77  1  0.44846000  0.04511000  0.57548000  1
  C  C78  1  0.50868000  0.97693000  0.62578000  1
  C  C79  1  0.47970000  0.89617000  0.63577000  1
  C  C80  1  0.53573000  0.83163000  0.68441000  1
  C  C81  1  0.62282000  0.84578000  0.72452000  1
  C  C82  1  0.65493000  0.92493000  0.71377000  1
  C  C83  1  0.59846000  0.99018000  0.66542000  1
  C  C84  1  0.67567000  0.77940000  0.77908000  1
  C  C85  1  0.50867000  0.41539000  0.77189000  1
  C  C86  1  0.58821000  0.44405000  0.80555000  1
  C  C87  1  0.54750000  0.57355000  0.73868000  1
  C  C88  1  0.46242000  0.54664000  0.70591000  1
  C  C89  1  0.38560000  0.60232000  0.65367000  1
  C  C90  1  0.25358000  0.63839000  0.57674000  1
  C  C91  1  0.15975000  0.64303000  0.52955000  1
  C  C92  1  0.05457000  0.72272000  0.50576000  1
  C  C93  1  0.95836000  0.72591000  0.46342000  1
  C  C94  1  0.96436000  0.64988000  0.44453000  1
  C  C95  1  0.07316000  0.57159000  0.46628000  1
  C  C96  1  0.17030000  0.56793000  0.50870000  1
  C  C97  1  0.84515000  0.65243000  0.40628000  1
  C  C98  1  0.79595000  0.61934000  0.02583000  1
  C  C99  1  0.75924000  0.58543000  0.07889000  1
  C  C100  1  0.58463000  0.71394000  0.07668000  1
  C  C101  1  0.61984000  0.75013000  0.02305000  1
  C  C102  1  0.54663000  0.83860000  0.99215000  1
  C  C103  1  0.49362000  0.95497000  0.92447000  1
  C  C104  1  0.48592000  0.02312000  0.87423000  1
  C  C105  1  0.37621000  0.10387000  0.86431000  1
  C  C106  1  0.36743000  0.16848000  0.81572000  1
  C  C107  1  0.46838000  0.15429000  0.77554000  1
  C  C108  1  0.57982000  0.07522000  0.78624000  1
  C  C109  1  0.58895000  0.00994000  0.83460000  1
  C  C110  1  0.45430000  0.22048000  0.72093000  1
  C  C111  1  0.92409000  0.58488000  0.72817000  1
  C  C112  1  0.03219000  0.55612000  0.69451000  1
  C  C113  1  0.12089000  0.42666000  0.76150000  1
  C  C114  1  0.00891000  0.45365000  0.79423000  1
  C  C115  1  0.98759000  0.39807000  0.84647000  1
  C  C116  1  0.89148000  0.36213000  0.92335000  1
  C  C117  1  0.80227000  0.35734000  0.97051000  1
  C  C118  1  0.77772000  0.27735000  0.99429000  1
  C  C119  1  0.68511000  0.27355000  0.03670000  1
  C  C120  1  0.61423000  0.34948000  0.05554000  1
  C  C121  1  0.64425000  0.42798000  0.03401000  1
  C  C122  1  0.73740000  0.43219000  0.99156000  1
  C  C123  1  0.49625000  0.34716000  0.09306000  1
  C  C124  1  0.58485000  0.61907000  0.52608000  1
  C  C125  1  0.65552000  0.58534000  0.57916000  1
  C  C126  1  0.70155000  0.71393000  0.57670000  1
  C  C127  1  0.62992000  0.75001000  0.52309000  1
  C  C128  1  0.61448000  0.83850000  0.49217000  1
  C  C129  1  0.55164000  0.95488000  0.42449000  1
  C  C130  1  0.49141000  0.02307000  0.37421000  1
  C  C131  1  0.52030000  0.10386000  0.36424000  1
  C  C132  1  0.46429000  0.16838000  0.31560000  1
  C  C133  1  0.37713000  0.15423000  0.27549000  1
  C  C134  1  0.34514000  0.07505000  0.28624000  1
  C  C135  1  0.40154000  0.00982000  0.33460000  1
  C  C136  1  0.32392000  0.22068000  0.22098000  1
  C  C137  1  0.49147000  0.58457000  0.22814000  1
  C  C138  1  0.41182000  0.55601000  0.19445000  1
  C  C139  1  0.45257000  0.42651000  0.26134000  1
  C  C140  1  0.53766000  0.45337000  0.29412000  1
  C  C141  1  0.61445000  0.39766000  0.34634000  1
  C  C142  1  0.74648000  0.36157000  0.42324000  1
  C  C143  1  0.84035000  0.35694000  0.47040000  1
  C  C144  1  0.94538000  0.27716000  0.49418000  1
  C  C145  1  0.04158000  0.27392000  0.53654000  1
  C  C146  1  0.03584000  0.34988000  0.55545000  1
  C  C147  1  0.92687000  0.42822000  0.53381000  1
  C  C148  1  0.82970000  0.43199000  0.49134000  1
  C  C149  1  0.15521000  0.34718000  0.59376000  1
  C  C150  1  0.20413000  0.38070000  0.97410000  1
  C  C151  1  0.24098000  0.41458000  0.92104000  1
  C  C152  1  0.41549000  0.28599000  0.92335000  1
  C  C153  1  0.38007000  0.24984000  0.97695000  1
  C  C154  1  0.45325000  0.16138000  0.00790000  1
  C  C155  1  0.50624000  0.04495000  0.07551000  1
  C  C156  1  0.51409000  0.97681000  0.12579000  1
  C  C157  1  0.62392000  0.89609000  0.13572000  1
  C  C158  1  0.63261000  0.83148000  0.18431000  1
  C  C159  1  0.53171000  0.84566000  0.22450000  1
  C  C160  1  0.42018000  0.92473000  0.21378000  1
  C  C161  1  0.41113000  0.99004000  0.16544000  1
  C  C162  1  0.54602000  0.77956000  0.27919000  1
  C  C163  1  0.07597000  0.41517000  0.27185000  1
  C  C164  1  0.96785000  0.44389000  0.30551000  1
  C  C165  1  0.87909000  0.57334000  0.23853000  1
  C  C166  1  0.99108000  0.54639000  0.20579000  1
  C  C167  1  0.01238000  0.60195000  0.15353000  1
  C  C168  1  0.10856000  0.63793000  0.07666000  1
  C  C169  1  0.19777000  0.64280000  0.02950000  1
  C  C170  1  0.22236000  0.72277000  0.00573000  1
  C  C171  1  0.31482000  0.72666000  0.96325000  1
  C  C172  1  0.38555000  0.65078000  0.94433000  1
  C  C173  1  0.35575000  0.57225000  0.96593000  1
  C  C174  1  0.26271000  0.56799000  0.00842000  1
  C  C175  1  0.50329000  0.65309000  0.90671000  1
  N  N176  1  0.42935000  0.29782000  0.50376000  1
  N  N177  1  0.28322000  0.36802000  0.39457000  1
  N  N178  1  0.45976000  0.12690000  0.56017000  1
  N  N179  1  0.32930000  0.10637000  0.48978000  1
  N  N180  1  0.36916000  0.03458000  0.53326000  1
  N  N181  1  0.44479000  0.46518000  0.72119000  1
  N  N182  1  0.61197000  0.52313000  0.78884000  1
  N  N183  1  0.31138000  0.57032000  0.62031000  1
  N  N184  1  0.37689000  0.68663000  0.63353000  1
  N  N185  1  0.29275000  0.70762000  0.58524000  1
  N  N186  1  0.72651000  0.70229000  0.99602000  1
  N  N187  1  0.65151000  0.63201000  0.10531000  1
  N  N188  1  0.58651000  0.87313000  0.93980000  1
  N  N189  1  0.43512000  0.89369000  0.01002000  1
  N  N190  1  0.40354000  0.96552000  0.96658000  1
  N  N191  1  0.91011000  0.53519000  0.77891000  1
  N  N192  1  0.13506000  0.47712000  0.71140000  1
  N  N193  1  0.88146000  0.43019000  0.87980000  1
  N  N194  1  0.06292000  0.31371000  0.86659000  1
  N  N195  1  0.99985000  0.29288000  0.91488000  1
  N  N196  1  0.57120000  0.70199000  0.49616000  1
  N  N197  1  0.71684000  0.63203000  0.60542000  1
  N  N198  1  0.54041000  0.87307000  0.43974000  1
  N  N199  1  0.67049000  0.89363000  0.51024000  1
  N  N200  1  0.63061000  0.96547000  0.46679000  1
  N  N201  1  0.55525000  0.53483000  0.27887000  1
  N  N202  1  0.38806000  0.47691000  0.21117000  1
  N  N203  1  0.68866000  0.42966000  0.37969000  1
  N  N204  1  0.62301000  0.31337000  0.36650000  1
  N  N205  1  0.70711000  0.29243000  0.41479000  1
  N  N206  1  0.27332000  0.29772000  0.00390000  1
  N  N207  1  0.34869000  0.36791000  0.89467000  1
  N  N208  1  0.41343000  0.12683000  0.06025000  1
  N  N209  1  0.56476000  0.10632000  0.99000000  1
  N  N210  1  0.59645000  0.03448000  0.03344000  1
  N  N211  1  0.08994000  0.46486000  0.22111000  1
  N  N212  1  0.86498000  0.52288000  0.28864000  1
  N  N213  1  0.11859000  0.56987000  0.12022000  1
  N  N214  1  0.93694000  0.68629000  0.13338000  1
  N  N215  1  0.00016000  0.70721000  0.08513000  1
  Cl  Cl216  1  0.53034000  0.38017000  0.60210000  1
  Cl  Cl217  1  0.91086000  0.61995000  0.89835000  1
  Cl  Cl218  1  0.46998000  0.62011000  0.39799000  1
  Cl  Cl219  1  0.08908000  0.37991000  0.10172000  1
  O  O220  1  0.71739000  0.80673000  0.81972000  1
  O  O221  1  0.67302000  0.70180000  0.78112000  1
  O  O222  1  0.74673000  0.72647000  0.39194000  1
  O  O223  1  0.84332000  0.58251000  0.39243000  1
  O  O224  1  0.52190000  0.19254000  0.68019000  1
  O  O225  1  0.37528000  0.29828000  0.71899000  1
  O  O226  1  0.47297000  0.27288000  0.10801000  1
  O  O227  1  0.42215000  0.41771000  0.10556000  1
  O  O228  1  0.28135000  0.19359000  0.18039000  1
  O  O229  1  0.32726000  0.29817000  0.21890000  1
  O  O230  1  0.25372000  0.27318000  0.60812000  1
  O  O231  1  0.15692000  0.41710000  0.60764000  1
  O  O232  1  0.47852000  0.80766000  0.31989000  1
  O  O233  1  0.62485000  0.70167000  0.28120000  1
  O  O234  1  0.52668000  0.72735000  0.89184000  1
  O  O235  1  0.57736000  0.58251000  0.89425000  1
