# generated using pymatgen
data_H5C8
_symmetry_space_group_name_H-M   'P 1'
_cell_length_a   9.80860000
_cell_length_b   34.32370000
_cell_length_c   34.33400000
_cell_angle_alpha   119.99300000
_cell_angle_beta   90.00000000
_cell_angle_gamma   90.00000000
_symmetry_Int_Tables_number   1
_chemical_formula_structural   H5C8
_chemical_formula_sum   'H60 C96'
_cell_volume   10011.21493283
_cell_formula_units_Z   12
loop_
 _symmetry_equiv_pos_site_id
 _symmetry_equiv_pos_as_xyz
  1  'x, y, z'
loop_
 _atom_site_type_symbol
 _atom_site_label
 _atom_site_symmetry_multiplicity
 _atom_site_fract_x
 _atom_site_fract_y
 _atom_site_fract_z
 _atom_site_occupancy
  C  1  1  0.02891900  0.05912300  0.03185000  1
  C  2  1  0.02896700  0.03484800  0.05517400  1
  C  3  1  0.02919500  0.98724800  0.03184200  1
  C  4  1  0.02938000  0.96391700  0.98425700  1
  C  5  1  0.02931500  0.98725100  0.95999000  1
  C  6  1  0.02908900  0.03486000  0.98426400  1
  C  10  1  0.01573500  0.46819000  0.20085200  1
  C  11  1  0.02888900  0.49128500  0.24809300  1
  C  12  1  0.04211300  0.46815500  0.27221400  1
  C  13  1  0.04090600  0.42061400  0.24815800  1
  C  14  1  0.02892900  0.39630700  0.20059000  1
  C  15  1  0.01697400  0.42064800  0.17735300  1
  C  19  1  0.01684500  0.81855300  0.27220000  1
  C  20  1  0.02992700  0.77129300  0.24807100  1
  C  21  1  0.04284200  0.74713900  0.20082200  1
  C  22  1  0.04146600  0.77117900  0.17732500  1
  C  23  1  0.02966000  0.81876400  0.20057200  1
  C  24  1  0.01794300  0.84203700  0.24814600  1
  C  28  1  0.01591700  0.74706600  0.55108900  1
  C  29  1  0.02911000  0.77121000  0.52798200  1
  C  30  1  0.04243400  0.81846100  0.55109200  1
  C  31  1  0.04135500  0.84194500  0.59862000  1
  C  32  1  0.02934500  0.81868300  0.62293700  1
  C  33  1  0.01724300  0.77110500  0.59861600  1
  C  37  1  0.02887500  0.34827900  0.17656400  1
  C  38  1  0.13932000  0.32373900  0.18012000  1
  C  39  1  0.14001100  0.27631800  0.15592400  1
  C  40  1  0.02881400  0.25169100  0.12820400  1
  C  41  1  0.91764800  0.27637000  0.12516700  1
  C  42  1  0.91838200  0.32379200  0.14846700  1
  C  45  1  0.02879300  0.20352100  0.10408300  1
  C  46  1  0.14157200  0.17889200  0.07731000  1
  C  47  1  0.14093100  0.13147200  0.05310200  1
  C  48  1  0.02883400  0.10704800  0.05580700  1
  C  49  1  0.91669000  0.13143500  0.08292400  1
  C  50  1  0.91604700  0.17885700  0.10619800  1
  C  57  1  0.02958800  0.84275900  0.17654600  1
  C  58  1  0.14021600  0.83928000  0.14855500  1
  C  59  1  0.14083900  0.86341200  0.12526600  1
  C  60  1  0.02942500  0.89099700  0.12818000  1
  C  61  1  0.91811500  0.89395600  0.15581200  1
  C  62  1  0.91887900  0.87072200  0.17999900  1
  C  65  1  0.02936900  0.91506900  0.10406300  1
  C  66  1  0.14267400  0.94148300  0.10578300  1
  C  67  1  0.14203200  0.96563900  0.08252000  1
  C  68  1  0.02926200  0.96328600  0.05579600  1
  C  69  1  0.91655600  0.93654700  0.05347700  1
  C  70  1  0.91600000  0.91331700  0.07766700  1
  C  77  1  0.02943500  0.84268800  0.67095600  1
  C  78  1  0.13979800  0.87086000  0.69544800  1
  C  79  1  0.14059300  0.89410600  0.74285500  1
  C  80  1  0.02953300  0.89097000  0.76749800  1
  C  81  1  0.91845100  0.86318400  0.74288100  1
  C  82  1  0.91912600  0.83902600  0.69547800  1
  C  85  1  0.02952800  0.91506300  0.81563400  1
  C  86  1  0.14169400  0.91256200  0.84027100  1
  C  87  1  0.14092900  0.93578400  0.88767800  1
  C  88  1  0.02941600  0.96329400  0.91206900  1
  C  89  1  0.91796400  0.96639200  0.88764800  1
  C  90  1  0.91735500  0.94222000  0.84024100  1
  C  97  1  0.00643800  0.49418300  0.17921300  1
  C  98  1  0.89507500  0.52376200  0.18883500  1
  C  99  1  0.90181900  0.55930900  0.17961900  1
  C  100  1  0.02087600  0.56699900  0.16104200  1
  C  101  1  0.12939300  0.53580900  0.14936700  1
  C  102  1  0.12251200  0.49995100  0.15825400  1
  C  105  1  0.03722000  0.60853000  0.16102400  1
  C  106  1  0.92877900  0.62803700  0.14930900  1
  C  107  1  0.93569200  0.67278100  0.15819300  1
  C  108  1  0.05176300  0.69948600  0.17916300  1
  C  109  1  0.16318100  0.67955000  0.18879500  1
  C  110  1  0.15622300  0.63481300  0.17966300  1
  C  117  1  0.00782200  0.84021800  0.31983700  1
  C  118  1  0.89623700  0.83060700  0.33972400  1
  C  119  1  0.90290400  0.83973500  0.38444700  1
  C  120  1  0.02189700  0.85829200  0.41076100  1
  C  121  1  0.13060100  0.86994800  0.39130000  1
  C  122  1  0.12397600  0.86103000  0.34655400  1
  C  125  1  0.03790800  0.85825600  0.45229000  1
  C  126  1  0.92917200  0.86990300  0.48340000  1
  C  127  1  0.93568700  0.86089200  0.51917500  1
  C  128  1  0.05191600  0.84010600  0.52510300  1
  C  129  1  0.16351200  0.83054300  0.49564800  1
  C  130  1  0.15685500  0.83968400  0.46005800  1
  C  137  1  0.00654300  0.69942800  0.52510300  1
  C  138  1  0.89501500  0.67949000  0.49562400  1
  C  139  1  0.90173200  0.63473200  0.46007500  1
  C  140  1  0.02088900  0.60847900  0.45230300  1
  C  141  1  0.12957700  0.62800300  0.48341700  1
  C  142  1  0.12276700  0.67274000  0.51927600  1
  C  145  1  0.03709200  0.56693200  0.41077500  1
  C  146  1  0.92861100  0.53571500  0.39133400  1
  C  147  1  0.93534700  0.49986200  0.34660400  1
  C  148  1  0.05128300  0.49411900  0.31984900  1
  C  149  1  0.16275200  0.52367800  0.33972000  1
  C  150  1  0.15596800  0.55927800  0.38444000  1
  H  7  1  0.02948600  0.92943500  0.96703200  1
  H  8  1  0.02908900  0.05210900  0.96703200  1
  H  9  1  0.02889200  0.05208000  0.08964700  1
  H  16  1  0.04856200  0.40361700  0.26552900  1
  H  17  1  0.00929100  0.40368000  0.14299600  1
  H  18  1  0.02884100  0.52582600  0.26536700  1
  H  25  1  0.04892900  0.75378900  0.14296200  1
  H  26  1  0.01035100  0.87640900  0.26551800  1
  H  27  1  0.02998100  0.75403000  0.26534400  1
  H  34  1  0.04916300  0.87630900  0.61559200  1
  H  35  1  0.00955600  0.75371200  0.61558900  1
  H  36  1  0.02906200  0.75394600  0.49345200  1
  H  43  1  0.83581000  0.25992700  0.10513000  1
  H  44  1  0.83612800  0.34037900  0.14531600  1
  H  51  1  0.22449400  0.19537300  0.07440500  1
  H  52  1  0.22413200  0.11485300  0.03396000  1
  H  53  1  0.83353200  0.11478700  0.08543400  1
  H  54  1  0.22161300  0.34028600  0.19985300  1
  H  55  1  0.83306800  0.19531200  0.12555800  1
  H  56  1  0.22180800  0.25983500  0.15948800  1
  H  63  1  0.83610500  0.91389900  0.15931000  1
  H  64  1  0.83646300  0.87379800  0.19964400  1
  H  71  1  0.22612000  0.94413200  0.12486500  1
  H  72  1  0.22565000  0.98450100  0.08472700  1
  H  73  1  0.83289500  0.93431700  0.03462800  1
  H  74  1  0.22264900  0.81963400  0.14547700  1
  H  75  1  0.83260900  0.89421300  0.07503200  1
  H  76  1  0.22274100  0.85986000  0.10527000  1
  H  83  1  0.83671900  0.85958700  0.75936600  1
  H  84  1  0.83692700  0.81924100  0.67892600  1
  H  91  1  0.22417200  0.89290200  0.82380600  1
  H  92  1  0.22364300  0.93298800  0.90431400  1
  H  93  1  0.83520900  0.98581500  0.90425700  1
  H  94  1  0.22195600  0.87408600  0.67887900  1
  H  95  1  0.83484700  0.94535800  0.82375300  1
  H  96  1  0.22231800  0.91420500  0.75931900  1
  H  103  1  0.21835200  0.54052400  0.13668500  1
  H  104  1  0.20777400  0.48075500  0.15315600  1
  H  111  1  0.83982800  0.61063700  0.13661200  1
  H  112  1  0.85053100  0.68690600  0.15308000  1
  H  113  1  0.24570600  0.69865600  0.20614500  1
  H  114  1  0.81245400  0.52195900  0.20612300  1
  H  115  1  0.23444500  0.62323800  0.19088000  1
  H  116  1  0.82361200  0.58210400  0.19081600  1
  H  123  1  0.21951400  0.88261400  0.40872400  1
  H  124  1  0.20918200  0.86619300  0.33248300  1
  H  131  1  0.84013800  0.88246300  0.47857100  1
  H  132  1  0.85033300  0.86599300  0.53833000  1
  H  133  1  0.24634300  0.81342900  0.49762200  1
  H  134  1  0.81354400  0.81339000  0.32062200  1
  H  135  1  0.23551100  0.82869400  0.43743900  1
  H  136  1  0.82445700  0.82857000  0.39598800  1
  H  143  1  0.21859500  0.61061600  0.47864200  1
  H  144  1  0.20811600  0.68684800  0.53841000  1
  H  151  1  0.83975500  0.54041800  0.40877400  1
  H  152  1  0.85014000  0.48063400  0.33252900  1
  H  153  1  0.24517500  0.52192100  0.32057600  1
  H  154  1  0.81232000  0.69857900  0.49748400  1
  H  155  1  0.23420500  0.58206600  0.39596800  1
  H  156  1  0.82339300  0.62313500  0.43733800  1
