# generated using pymatgen
data_H28C39(N4O)2
_symmetry_space_group_name_H-M   'P 1'
_cell_length_a   28.71230000
_cell_length_b   58.25175000
_cell_length_c   58.25170000
_cell_angle_alpha   119.99991482
_cell_angle_beta   89.99990000
_cell_angle_gamma   90.00000000
_symmetry_Int_Tables_number   1
_chemical_formula_structural   H28C39(N4O)2
_chemical_formula_sum   'H168 C234 N48 O12'
_cell_volume   84375.54066037
_cell_formula_units_Z   6
loop_
 _symmetry_equiv_pos_site_id
 _symmetry_equiv_pos_as_xyz
  1  'x, y, z'
loop_
 _atom_site_type_symbol
 _atom_site_label
 _atom_site_symmetry_multiplicity
 _atom_site_fract_x
 _atom_site_fract_y
 _atom_site_fract_z
 _atom_site_occupancy
  H  4  1  0.82858700  0.61486900  0.44990400  1
  H  5  1  0.68298400  0.62608500  0.45386700  1
  H  7  1  0.79678000  0.65778500  0.46097500  1
  H  33  1  0.62391000  0.91954700  0.49065200  1
  H  34  1  0.68455700  0.88777900  0.47898900  1
  H  35  1  0.63670900  0.91425700  0.41602500  1
  H  36  1  0.69720100  0.88278400  0.40456900  1
  H  37  1  0.78753100  0.88986100  0.41626600  1
  H  38  1  0.85088800  0.91953000  0.43642100  1
  H  39  1  0.84009000  0.90928000  0.50298900  1
  H  40  1  0.77675800  0.87995800  0.48292600  1
  H  41  1  0.80048700  0.83130600  0.44285900  1
  H  42  1  0.79017000  0.79277200  0.44619500  1
  H  43  1  0.64458000  0.79988800  0.44241000  1
  H  44  1  0.65497200  0.83812300  0.43882400  1
  H  45  1  0.67221700  0.83281200  0.39299100  1
  H  46  1  0.81770500  0.83946400  0.40408900  1
  H  47  1  0.82857400  0.80413900  0.36055000  1
  H  48  1  0.68298300  0.79700800  0.34928000  1
  H  51  1  0.90402000  0.93467300  0.50017400  1
  H  52  1  0.58944700  0.94936700  0.45131700  1
  H  54  1  0.68087000  0.75783300  0.43402600  1
  H  56  1  0.79678200  0.77230500  0.31762300  1
  H  59  1  0.79017600  0.62261200  0.18259700  1
  H  60  1  0.64459100  0.61171700  0.17547600  1
  H  62  1  0.68091000  0.64535600  0.21754600  1
  H  65  1  0.98074600  0.95219300  0.50859600  1
  H  73  1  0.36367200  0.96223100  0.50191000  1
  H  74  1  0.36164900  0.95814200  0.52998100  1
  H  75  1  0.39902000  0.93776400  0.50334900  1
  H  84  1  0.68767900  0.67581400  0.42105300  1
  H  86  1  0.75461100  0.73761100  0.52322100  1
  H  87  1  0.78976400  0.71560400  0.52827000  1
  H  88  1  0.73554600  0.70450500  0.51205100  1
  H  98  1  0.68765700  0.71440300  0.29956100  1
  H  100  1  0.75448000  0.75483100  0.23779900  1
  H  101  1  0.78961600  0.78189200  0.25980900  1
  H  102  1  0.73541900  0.77674600  0.27091000  1
  H  127  1  0.62396200  0.48470900  0.43508000  1
  H  128  1  0.68464100  0.49636000  0.41498000  1
  H  129  1  0.63655900  0.55940800  0.50435200  1
  H  130  1  0.69708800  0.57085000  0.48434100  1
  H  131  1  0.78744000  0.55907400  0.47976300  1
  H  132  1  0.85083000  0.53893400  0.48927400  1
  H  133  1  0.84021800  0.47242800  0.41240200  1
  H  134  1  0.77684900  0.49247300  0.40315000  1
  H  135  1  0.80048200  0.53257500  0.39462900  1
  H  136  1  0.79012400  0.52920100  0.35274100  1
  H  137  1  0.64452500  0.53282000  0.36359200  1
  H  138  1  0.65493200  0.53644800  0.40543600  1
  H  139  1  0.67219500  0.58235500  0.44591500  1
  H  140  1  0.81772100  0.57130700  0.44164100  1
  H  142  1  0.90410300  0.47524000  0.44062900  1
  H  143  1  0.58934600  0.52411900  0.50420700  1
  H  145  1  0.68075000  0.54123900  0.32993100  1
  H  170  1  0.62392400  0.54030000  0.05581100  1
  H  171  1  0.68457100  0.56040400  0.08758300  1
  H  172  1  0.63671300  0.47096400  0.06110500  1
  H  173  1  0.69720200  0.49098200  0.09258100  1
  H  174  1  0.78752700  0.49559700  0.08548600  1
  H  175  1  0.85087800  0.48608400  0.05581400  1
  H  176  1  0.84009000  0.56291300  0.06608600  1
  H  177  1  0.77676300  0.57216700  0.09540900  1
  H  178  1  0.80049500  0.58074300  0.14406400  1
  H  179  1  0.65498100  0.56989500  0.13724200  1
  H  180  1  0.67222700  0.52936200  0.14254300  1
  H  181  1  0.81771300  0.53381200  0.13589200  1
  H  182  1  0.82858500  0.52560100  0.17121800  1
  H  183  1  0.68299500  0.52145500  0.17834900  1
  H  186  1  0.90397600  0.53469800  0.04065800  1
  H  187  1  0.58945800  0.47114800  0.02599300  1
  H  189  1  0.79681800  0.51455300  0.20307800  1
  H  191  1  0.12372300  0.47829000  0.55269600  1
  H  192  1  0.33983900  0.49075000  0.57515100  1
  H  193  1  0.27652100  0.47067100  0.58440700  1
  H  194  1  0.40391700  0.48789900  0.54700400  1
  H  197  1  0.13680400  0.49210800  0.92661200  1
  H  198  1  0.19729400  0.47208300  0.89513000  1
  H  199  1  0.35098800  0.47693400  0.93178200  1
  H  201  1  0.08942400  0.49190100  0.96165800  1
  H  209  1  0.86365100  0.48955700  0.52116200  1
  H  210  1  0.86160200  0.51762000  0.55332700  1
  H  211  1  0.89898000  0.49098900  0.54707000  1
  H  217  1  0.98069700  0.52562300  0.02313500  1
  H  224  1  0.48065400  0.49635100  0.53794100  1
  H  225  1  0.36369000  0.47336100  0.46641100  1
  H  226  1  0.39905400  0.47191300  0.44050800  1
  H  234  1  0.36368300  0.50887900  0.01313100  1
  H  235  1  0.36165600  0.54104000  0.01722300  1
  H  236  1  0.39902700  0.53478500  0.03760000  1
  H  245  1  0.68752800  0.55426700  0.26091200  1
  H  250  1  0.25424500  0.51092500  0.76717200  1
  H  251  1  0.28936300  0.51602100  0.79425600  1
  H  252  1  0.23522900  0.49970800  0.78907700  1
  H  277  1  0.18435500  0.46662400  0.57280500  1
  H  278  1  0.13694700  0.40379500  0.48323300  1
  H  279  1  0.19742300  0.39233800  0.50326300  1
  H  280  1  0.28773600  0.40386000  0.50797100  1
  H  281  1  0.35108200  0.42402500  0.49846000  1
  H  282  1  0.30053200  0.43075000  0.59316600  1
  H  283  1  0.29018800  0.43409600  0.63504800  1
  H  284  1  0.14464400  0.42986800  0.62394100  1
  H  285  1  0.15503700  0.42627900  0.58212000  1
  H  286  1  0.17218300  0.38060000  0.54149800  1
  H  287  1  0.31765400  0.39186100  0.54635900  1
  H  288  1  0.32854500  0.34831600  0.53812800  1
  H  289  1  0.18298300  0.33687000  0.53355900  1
  H  292  1  0.08950400  0.43904000  0.48347400  1
  H  294  1  0.18102200  0.42158000  0.65764800  1
  H  295  1  0.29678500  0.30531200  0.52681600  1
  H  320  1  0.12383800  0.42271900  0.93180200  1
  H  321  1  0.18448100  0.40261200  0.90002900  1
  H  322  1  0.28762100  0.46742500  0.90211500  1
  H  323  1  0.33999600  0.40016700  0.92164700  1
  H  324  1  0.27666100  0.39091400  0.89232500  1
  H  325  1  0.30053600  0.38223800  0.84367700  1
  H  326  1  0.29018500  0.34034600  0.80515300  1
  H  327  1  0.14461600  0.35138900  0.81216400  1
  H  328  1  0.15503300  0.39321200  0.85037500  1
  H  329  1  0.17221400  0.43374100  0.84517400  1
  H  330  1  0.31772700  0.42915400  0.85173700  1
  H  331  1  0.32858600  0.43742500  0.81644200  1
  H  332  1  0.18300400  0.44170500  0.80940100  1
  H  334  1  0.40398300  0.42834600  0.94700100  1
  H  336  1  0.18089700  0.31767400  0.77015500  1
  H  338  1  0.29678500  0.44864500  0.78470000  1
  H  340  1  0.98076500  0.46677500  0.44973900  1
  H  346  1  0.86369200  0.45412900  0.97453600  1
  H  347  1  0.86169900  0.42197700  0.97046700  1
  H  348  1  0.89905300  0.42822700  0.95007900  1
  H  353  1  0.36173600  0.44526500  0.43426500  1
  H  357  1  0.48073000  0.43742500  0.96450700  1
  H  360  1  0.75474900  0.45216800  0.22054000  1
  H  361  1  0.78991200  0.44716000  0.19350300  1
  H  362  1  0.73565500  0.46333900  0.19861100  1
  H  369  1  0.18781000  0.40865800  0.72671600  1
  H  374  1  0.18766400  0.28724200  0.56665800  1
  H  404  1  0.12375700  0.04360900  0.49707500  1
  H  405  1  0.18440400  0.07537700  0.50873900  1
  H  406  1  0.13688100  0.04869200  0.57159700  1
  H  407  1  0.19737100  0.08017200  0.58305600  1
  H  408  1  0.28771500  0.07331900  0.57150500  1
  H  409  1  0.35107800  0.04365300  0.55135000  1
  H  410  1  0.33989900  0.05364700  0.48464000  1
  H  411  1  0.27656700  0.08297200  0.50470800  1
  H  412  1  0.30052500  0.13163200  0.54461900  1
  H  413  1  0.29017400  0.17017200  0.54126800  1
  H  414  1  0.14462700  0.16326500  0.54547100  1
  H  415  1  0.15503700  0.12504100  0.54906700  1
  H  416  1  0.17217900  0.13013400  0.59476500  1
  H  417  1  0.31766100  0.12370000  0.58352000  1
  H  418  1  0.32855100  0.15901500  0.62705900  1
  H  419  1  0.18298300  0.16592700  0.63848900  1
  H  422  1  0.40399000  0.02837000  0.48751000  1
  H  423  1  0.08948600  0.01366300  0.53633600  1
  H  425  1  0.18094600  0.20524300  0.55372500  1
  H  427  1  0.29677800  0.19072200  0.67006100  1
  H  434  1  0.86363800  0.00084400  0.48583200  1
  H  435  1  0.86157700  0.00494900  0.45777100  1
  H  436  1  0.89896500  0.02531900  0.48439700  1
  H  440  1  0.48072700  0.01085800  0.47908000  1
  H  448  1  0.25445100  0.22548600  0.46446400  1
  H  449  1  0.28958600  0.24749700  0.45941300  1
  H  450  1  0.23539600  0.25859800  0.47566600  1
  H  457  1  0.18762600  0.24862300  0.68814000  1
  H  459  1  0.25454500  0.20819100  0.74988400  1
  H  460  1  0.28969400  0.18114100  0.72786500  1
  H  461  1  0.23548000  0.18627500  0.71677400  1
  C  1  1  0.75695800  0.62520000  0.45299000  1
  C  2  1  0.79524800  0.60868300  0.45006400  1
  C  3  1  0.71186600  0.61502600  0.45212900  1
  C  6  1  0.76488000  0.65021500  0.45602200  1
  C  8  1  0.75695300  0.79696000  0.35018300  1
  C  9  1  0.79524100  0.81052500  0.36671200  1
  C  10  1  0.78868500  0.83192100  0.39256200  1
  C  11  1  0.74370500  0.84160000  0.40325400  1
  C  12  1  0.70560400  0.82789300  0.38619900  1
  C  13  1  0.71187200  0.80632400  0.36033400  1
  C  14  1  0.73627600  0.86075800  0.43302500  1
  C  15  1  0.72891300  0.84039200  0.44213100  1
  C  16  1  0.68402600  0.83003200  0.44207900  1
  C  17  1  0.67774200  0.80694800  0.44375700  1
  C  18  1  0.71623000  0.79266800  0.44532600  1
  C  19  1  0.76116600  0.80296000  0.44612900  1
  C  20  1  0.76715200  0.82602000  0.44431300  1
  C  21  1  0.77697200  0.87997800  0.44642100  1
  C  22  1  0.69565700  0.88017900  0.43971400  1
  C  23  1  0.67410500  0.89254600  0.46510800  1
  C  24  1  0.63810200  0.91139200  0.47208900  1
  C  25  1  0.62282000  0.91961300  0.45423700  1
  C  26  1  0.64558000  0.90844700  0.42939300  1
  C  27  1  0.68124700  0.88949200  0.42248500  1
  C  28  1  0.79844100  0.89344200  0.43447300  1
  C  29  1  0.83594800  0.91116800  0.44645200  1
  C  30  1  0.85304300  0.91714500  0.47163300  1
  C  31  1  0.82990800  0.90518500  0.48446500  1
  C  32  1  0.79250200  0.88749300  0.47238300  1
  C  49  1  0.58877500  0.93909200  0.46077600  1
  C  50  1  0.76486500  0.77495800  0.32518000  1
  C  53  1  0.70922100  0.76809100  0.44343200  1
  C  55  1  0.89118200  0.93387700  0.48393700  1
  C  57  1  0.71623600  0.62186300  0.18268800  1
  C  58  1  0.76117200  0.61236000  0.17240400  1
  C  61  1  0.70923500  0.64452600  0.20728000  1
  C  63  1  0.94632100  0.96551800  0.48499900  1
  C  64  1  0.98129300  0.96557400  0.50215000  1
  C  67  1  0.45137700  0.97841500  0.51072200  1
  C  69  1  0.52120100  0.96152400  0.48542600  1
  C  72  1  0.38455900  0.95773600  0.51485100  1
  C  77  1  0.76251900  0.70888400  0.47097000  1
  C  78  1  0.73593200  0.68679400  0.45246600  1
  C  79  1  0.70820300  0.69073500  0.43473500  1
  C  81  1  0.73558200  0.73501100  0.45262700  1
  C  85  1  0.76572000  0.71697200  0.51451100  1
  C  91  1  0.76246000  0.73128600  0.26650300  1
  C  92  1  0.73588100  0.73485600  0.28858900  1
  C  93  1  0.70819400  0.71317000  0.28464600  1
  C  95  1  0.73556300  0.68680800  0.24036400  1
  C  99  1  0.76559400  0.76675400  0.25843600  1
  C  105  1  0.78868900  0.58281400  0.44555400  1
  C  106  1  0.74369500  0.57211900  0.44448200  1
  C  107  1  0.70558100  0.58915300  0.44780700  1
  C  108  1  0.73626500  0.54234500  0.43388500  1
  C  109  1  0.72889600  0.53324500  0.40440700  1
  C  110  1  0.68398400  0.53321700  0.39409300  1
  C  111  1  0.67769600  0.53151800  0.36932300  1
  C  112  1  0.71618000  0.52999000  0.35348700  1
  C  113  1  0.76113200  0.52924300  0.36299200  1
  C  114  1  0.76714800  0.53107700  0.38787200  1
  C  115  1  0.77695400  0.52894200  0.43971000  1
  C  116  1  0.69566100  0.53565700  0.44662900  1
  C  117  1  0.67414600  0.51025200  0.43361100  1
  C  118  1  0.63813700  0.50328000  0.44548100  1
  C  119  1  0.62277800  0.52115800  0.47152700  1
  C  120  1  0.64547500  0.54602400  0.48518600  1
  C  121  1  0.68116500  0.55292400  0.47314500  1
  C  122  1  0.79839200  0.54088400  0.46512900  1
  C  123  1  0.83591500  0.52891100  0.47087400  1
  C  124  1  0.85307400  0.50375400  0.45165100  1
  C  125  1  0.82998500  0.49093400  0.42684500  1
  C  126  1  0.79256000  0.50300800  0.42123900  1
  C  141  1  0.58871900  0.51463100  0.48447200  1
  C  144  1  0.70914400  0.53187100  0.33079800  1
  C  146  1  0.89123400  0.49146100  0.45607700  1
  C  147  1  0.75696500  0.52241100  0.17839900  1
  C  148  1  0.79525200  0.52537900  0.16483500  1
  C  149  1  0.78869300  0.52983100  0.14343800  1
  C  150  1  0.74371200  0.53084700  0.13376200  1
  C  151  1  0.70561400  0.52751400  0.14748000  1
  C  152  1  0.71188300  0.52319700  0.16903600  1
  C  153  1  0.73628300  0.54146100  0.11460400  1
  C  154  1  0.72892200  0.57093500  0.13497200  1
  C  155  1  0.68403500  0.58124200  0.14533000  1
  C  156  1  0.67775300  0.60600500  0.16841400  1
  C  157  1  0.76716000  0.58748600  0.14934600  1
  C  158  1  0.77697900  0.53564000  0.09538300  1
  C  159  1  0.69566300  0.52873000  0.09518500  1
  C  160  1  0.67411200  0.54176000  0.08281800  1
  C  161  1  0.63809900  0.52989700  0.06398000  1
  C  162  1  0.62282300  0.50382400  0.05575300  1
  C  163  1  0.64557600  0.49014400  0.06692100  1
  C  164  1  0.68124800  0.50218800  0.08587300  1
  C  165  1  0.79845600  0.51023000  0.08192200  1
  C  166  1  0.83594200  0.50448000  0.06418100  1
  C  167  1  0.85303900  0.52368700  0.05821000  1
  C  168  1  0.82991000  0.54848100  0.07017700  1
  C  169  1  0.79250800  0.55408900  0.08787200  1
  C  184  1  0.58877800  0.49088200  0.03627200  1
  C  185  1  0.76488000  0.51941500  0.20040500  1
  C  188  1  0.89116900  0.51925900  0.04147200  1
  C  190  1  0.32975700  0.47219200  0.56075100  1
  C  195  1  0.39113800  0.47163300  0.53157000  1
  C  196  1  0.14563700  0.47291800  0.92077700  1
  C  200  1  0.08878600  0.47216800  0.95139800  1
  C  202  1  0.95135900  0.49838700  0.51381400  1
  C  203  1  0.94633900  0.49037700  0.48665900  1
  C  204  1  0.98131400  0.47322400  0.46956600  1
  C  205  1  0.02119800  0.47310600  0.50541800  1
  C  208  1  0.88452500  0.50249600  0.53860500  1
  C  213  1  0.94633400  0.48869100  0.00984300  1
  C  214  1  0.98126500  0.50579600  0.00976400  1
  C  216  1  0.02120500  0.46994200  0.97382100  1
  C  219  1  0.44633400  0.47267000  0.50100200  1
  C  220  1  0.48123500  0.48987900  0.51810900  1
  C  222  1  0.52118400  0.48995200  0.48225000  1
  C  228  1  0.45138800  0.50150900  0.99694800  1
  C  229  1  0.44634400  0.47435400  0.97781500  1
  C  230  1  0.52120400  0.49310200  0.01384200  1
  C  233  1  0.38456600  0.52631700  0.01762900  1
  C  238  1  0.76253100  0.50442600  0.24408900  1
  C  239  1  0.73590800  0.52291900  0.24050400  1
  C  240  1  0.70810000  0.54060500  0.26215800  1
  C  242  1  0.73554000  0.52272900  0.28854400  1
  C  249  1  0.26539400  0.50222700  0.77910400  1
  C  253  1  0.25694100  0.33786800  0.53473300  1
  C  254  1  0.29522100  0.35444900  0.53782900  1
  C  255  1  0.28865600  0.38030300  0.54229500  1
  C  256  1  0.24366400  0.39093800  0.54319600  1
  C  257  1  0.20557600  0.37384800  0.53973500  1
  C  258  1  0.21186300  0.34797400  0.53541200  1
  C  259  1  0.23627000  0.42071300  0.55379500  1
  C  260  1  0.22896000  0.42981500  0.58327400  1
  C  261  1  0.18405600  0.42968000  0.59352700  1
  C  262  1  0.17778700  0.43131400  0.61827000  1
  C  263  1  0.21626500  0.43301400  0.63418400  1
  C  264  1  0.26119000  0.43389900  0.62472600  1
  C  265  1  0.26719100  0.43212200  0.59987000  1
  C  266  1  0.27695700  0.43410000  0.54795100  1
  C  267  1  0.19565400  0.42740500  0.54106700  1
  C  268  1  0.17399000  0.45276900  0.55413200  1
  C  269  1  0.13800900  0.45975200  0.54225600  1
  C  270  1  0.12284100  0.44193700  0.51614900  1
  C  271  1  0.14571000  0.41712800  0.50244100  1
  C  272  1  0.18136700  0.41021800  0.51449300  1
  C  273  1  0.29856100  0.42209800  0.52257400  1
  C  274  1  0.33605400  0.43408600  0.51682800  1
  C  275  1  0.35301100  0.45931800  0.53599500  1
  C  276  1  0.29235800  0.46010200  0.56636000  1
  C  290  1  0.08881100  0.44848400  0.50320600  1
  C  291  1  0.26485400  0.31285300  0.53170100  1
  C  293  1  0.20928500  0.43107400  0.65684200  1
  C  296  1  0.25696900  0.44067300  0.80930900  1
  C  297  1  0.29525600  0.43762500  0.82282000  1
  C  298  1  0.28870800  0.43316400  0.84421200  1
  C  299  1  0.24372000  0.43217000  0.85388500  1
  C  300  1  0.20560400  0.43558400  0.84023500  1
  C  301  1  0.21188400  0.43990500  0.81868400  1
  C  302  1  0.23628100  0.42157600  0.87306200  1
  C  303  1  0.22897000  0.39209800  0.85268900  1
  C  304  1  0.18405900  0.38181700  0.84234800  1
  C  305  1  0.17776900  0.35705500  0.81926300  1
  C  306  1  0.21624800  0.34116800  0.80500800  1
  C  307  1  0.26118300  0.35064300  0.81530500  1
  C  308  1  0.26719800  0.37552300  0.83835200  1
  C  309  1  0.27696400  0.42741400  0.89229400  1
  C  310  1  0.19566400  0.43431900  0.89248300  1
  C  311  1  0.17406700  0.42127000  0.90481700  1
  C  312  1  0.13805400  0.43313500  0.92365800  1
  C  313  1  0.12284800  0.45923200  0.93192600  1
  C  314  1  0.18130100  0.46087100  0.90181900  1
  C  315  1  0.29850500  0.45280600  0.90571300  1
  C  316  1  0.33600100  0.45855300  0.92344700  1
  C  317  1  0.35303900  0.43936100  0.92945600  1
  C  318  1  0.32985100  0.41458500  0.91752900  1
  C  319  1  0.29244500  0.40897800  0.89983600  1
  C  333  1  0.26487500  0.44371500  0.78733000  1
  C  335  1  0.20922300  0.31850200  0.78042100  1
  C  337  1  0.39118300  0.44378400  0.94618400  1
  C  342  1  0.95139800  0.46153100  0.99072100  1
  C  345  1  0.88459500  0.43670200  0.97005100  1
  C  350  1  0.45140500  0.46462200  0.47384100  1
  C  352  1  0.38461100  0.46042000  0.44899000  1
  C  355  1  0.48129500  0.45725100  0.97788000  1
  C  359  1  0.76583600  0.46089500  0.20862400  1
  C  363  1  0.26242600  0.45868700  0.74363500  1
  C  364  1  0.23595000  0.44012500  0.74718600  1
  C  365  1  0.20828900  0.42236700  0.72549500  1
  C  367  1  0.23557400  0.44032100  0.69914700  1
  C  372  1  0.23590800  0.27627700  0.53524400  1
  C  373  1  0.20817800  0.27232300  0.55296600  1
  C  377  1  0.23553900  0.27621700  0.74733300  1
  C  379  1  0.25694400  0.16608800  0.63749600  1
  C  380  1  0.29522400  0.15259100  0.62092200  1
  C  381  1  0.28865600  0.13120300  0.59506800  1
  C  382  1  0.24366400  0.12147600  0.58442800  1
  C  383  1  0.20557600  0.13512200  0.60151500  1
  C  384  1  0.21186300  0.15667700  0.62738500  1
  C  385  1  0.23627400  0.10229900  0.55465500  1
  C  386  1  0.22896000  0.12267100  0.54554900  1
  C  387  1  0.18405200  0.13304700  0.54566500  1
  C  388  1  0.17776600  0.15613100  0.54398500  1
  C  389  1  0.21624800  0.17036500  0.54232300  1
  C  390  1  0.26118000  0.16004100  0.54145800  1
  C  391  1  0.26718400  0.13698200  0.54326900  1
  C  392  1  0.27696000  0.08306800  0.54127000  1
  C  393  1  0.19565700  0.08287600  0.54797000  1
  C  394  1  0.17401800  0.07057200  0.52260100  1
  C  395  1  0.13802000  0.05172200  0.51562100  1
  C  396  1  0.12283100  0.04344100  0.53344100  1
  C  397  1  0.14567500  0.05455000  0.55825500  1
  C  398  1  0.18133200  0.07351200  0.56517100  1
  C  399  1  0.29854300  0.06968300  0.55326800  1
  C  400  1  0.33605700  0.05196200  0.54128900  1
  C  401  1  0.35303600  0.04590800  0.51606300  1
  C  402  1  0.32979100  0.05779400  0.50319100  1
  C  403  1  0.29238600  0.07548700  0.51527600  1
  C  420  1  0.08879300  0.02395500  0.52689500  1
  C  421  1  0.26486100  0.18807600  0.66250700  1
  C  424  1  0.20924000  0.19496100  0.54425800  1
  C  426  1  0.39118000  0.02918200  0.50376100  1
  C  428  1  0.95134400  0.98466200  0.47698800  1
  C  430  1  0.02118400  0.00154500  0.50227100  1
  C  433  1  0.88450600  0.00534800  0.47289200  1
  C  438  1  0.44633700  0.99755100  0.50270100  1
  C  439  1  0.48129500  0.99748600  0.48553700  1
  C  442  1  0.26245100  0.25418300  0.51671200  1
  C  444  1  0.23554600  0.22804200  0.53504500  1
  C  447  1  0.26557100  0.24612200  0.47317900  1
  C  452  1  0.26246500  0.23174700  0.72118700  1
  C  453  1  0.23587700  0.22817700  0.69910500  1
  C  454  1  0.20815000  0.24985200  0.70305700  1
  C  458  1  0.26565500  0.19627400  0.72924500  1
  N  66  1  0.91024700  0.94861800  0.47584000  1
  N  68  1  0.51695900  0.97980600  0.47750600  1
  N  70  1  0.48826700  0.96140200  0.50211200  1
  N  76  1  0.55591400  0.94395800  0.47771200  1
  N  80  1  0.70891200  0.71426100  0.43515400  1
  N  82  1  0.76196500  0.73181700  0.47014800  1
  N  89  1  0.73750000  0.75813000  0.45327900  1
  N  90  1  0.73392800  0.66325800  0.45119100  1
  N  94  1  0.70890500  0.69006900  0.26111300  1
  N  96  1  0.76191900  0.70753300  0.24356400  1
  N  103  1  0.73748000  0.66435100  0.21723700  1
  N  104  1  0.73387100  0.75711700  0.31212400  1
  N  206  1  0.98825100  0.48978100  0.52222300  1
  N  212  1  0.91026300  0.49953600  0.47892000  1
  N  215  1  0.01694200  0.49614700  0.99209300  1
  N  218  1  0.91026300  0.49642700  0.02674500  1
  N  221  1  0.51690700  0.49790400  0.50845900  1
  N  223  1  0.48829200  0.47323400  0.46543700  1
  N  227  1  0.55590400  0.49766300  0.47239800  1
  N  231  1  0.48827400  0.50991100  0.01396300  1
  N  237  1  0.55591800  0.50295400  0.03140900  1
  N  241  1  0.70880900  0.54017700  0.28526200  1
  N  243  1  0.76197300  0.50523800  0.26784000  1
  N  246  1  0.73746300  0.52207200  0.31100800  1
  N  247  1  0.73387700  0.52417800  0.21823500  1
  N  339  1  0.01698100  0.46519700  0.47921800  1
  N  341  1  0.05591500  0.46539500  0.51527300  1
  N  343  1  0.98829300  0.45313000  0.97371000  1
  N  349  1  0.05593600  0.46009100  0.95626300  1
  N  354  1  0.41025900  0.46351000  0.50874200  1
  N  356  1  0.51696200  0.46689900  0.99555800  1
  N  358  1  0.41026900  0.46661700  0.96091400  1
  N  366  1  0.20898600  0.42280300  0.70239500  1
  N  368  1  0.26186900  0.45787800  0.71988600  1
  N  370  1  0.23747500  0.44099400  0.67669100  1
  N  371  1  0.23391900  0.43886300  0.76945300  1
  N  375  1  0.23387400  0.29980700  0.53650700  1
  N  376  1  0.20886700  0.27295400  0.72658900  1
  N  378  1  0.23746500  0.29867600  0.77045900  1
  N  429  1  0.01696300  0.98325200  0.51017700  1
  N  431  1  0.98823300  0.00167500  0.48559500  1
  N  437  1  0.05590100  0.01911000  0.50998200  1
  N  441  1  0.41026200  0.01445100  0.51186400  1
  N  443  1  0.20888800  0.24878800  0.55253200  1
  N  445  1  0.26189700  0.23124200  0.51751900  1
  N  451  1  0.23745800  0.20491000  0.53437000  1
  N  455  1  0.26191800  0.25549500  0.74412700  1
  N  462  1  0.23387100  0.20591800  0.67556600  1
  O  71  1  0.42058500  0.97713600  0.52796900  1
  O  83  1  0.78972800  0.70813600  0.48982900  1
  O  97  1  0.78963800  0.75090600  0.26725900  1
  O  207  1  0.92055000  0.51562400  0.53233600  1
  O  232  1  0.42059200  0.52003500  0.99822800  1
  O  244  1  0.78978600  0.48559500  0.22448900  1
  O  248  1  0.28953300  0.47758600  0.76327200  1
  O  344  1  0.92062200  0.44300500  0.98945500  1
  O  351  1  0.42065200  0.44734200  0.45531200  1
  O  432  1  0.92052800  0.98594900  0.45975500  1
  O  446  1  0.28962400  0.25493800  0.49784500  1
  O  456  1  0.28966900  0.21213100  0.72042300  1
