# generated using pymatgen
data_H40C45N4
_symmetry_space_group_name_H-M   'P 1'
_cell_length_a   39.88858166
_cell_length_b   39.88913859
_cell_length_c   39.88802468
_cell_angle_alpha   70.52989349
_cell_angle_beta   70.53204251
_cell_angle_gamma   109.47559794
_symmetry_Int_Tables_number   1
_chemical_formula_structural   H40C45N4
_chemical_formula_sum   'H240 C270 N24'
_cell_volume   48856.67298111
_cell_formula_units_Z   6
loop_
 _symmetry_equiv_pos_site_id
 _symmetry_equiv_pos_as_xyz
  1  'x, y, z'
loop_
 _atom_site_type_symbol
 _atom_site_label
 _atom_site_symmetry_multiplicity
 _atom_site_fract_x
 _atom_site_fract_y
 _atom_site_fract_z
 _atom_site_occupancy
  C  1  1  0.81973100  0.30752050  0.48788250  1
  C  2  1  0.85834400  0.33653950  0.47779850  1
  C  3  1  0.88842600  0.33519100  0.44904400  1
  C  4  1  0.86944550  0.30639700  0.43924550  1
  C  5  1  0.89356250  0.29744200  0.41242550  1
  C  6  1  0.93671350  0.31752750  0.39580100  1
  C  7  1  0.95517650  0.34688850  0.40573100  1
  C  8  1  0.93128300  0.35622450  0.43201950  1
  C  9  1  0.86236450  0.36240100  0.49478650  1
  C  10  1  0.82672650  0.35979000  0.52133250  1
  C  11  1  0.78740850  0.33117500  0.53152850  1
  C  12  1  0.78394250  0.30460800  0.51494850  1
  C  13  1  0.80297550  0.29015700  0.43925950  1
  C  14  1  0.77379200  0.25144100  0.44969500  1
  C  15  1  0.77529000  0.22150950  0.47857750  1
  C  16  1  0.80380550  0.24087150  0.48846500  1
  C  17  1  0.75500450  0.17861450  0.49551300  1
  C  18  1  0.76485000  0.15520950  0.52168050  1
  C  19  1  0.79358300  0.17413550  0.53201250  1
  C  20  1  0.81282150  0.21725050  0.51556700  1
  C  21  1  0.80585350  0.32589600  0.41220750  1
  C  22  1  0.77852500  0.32235900  0.39654400  1
  C  23  1  0.74932450  0.28300200  0.40745550  1
  C  24  1  0.74725450  0.24738500  0.43343750  1
  C  37  1  0.82399100  0.28625450  0.46369450  1
  C  46  1  0.27830450  0.76499500  0.48927150  1
  C  47  1  0.25936600  0.73602750  0.47962150  1
  C  48  1  0.28947250  0.73736850  0.44819500  1
  C  49  1  0.32806650  0.76608300  0.43845650  1
  C  50  1  0.36385650  0.77494450  0.40547300  1
  C  51  1  0.36040750  0.75484800  0.38241550  1
  C  52  1  0.32111300  0.72556900  0.39323500  1
  C  53  1  0.28547550  0.71634000  0.42636650  1
  C  54  1  0.21652650  0.71008400  0.50152450  1
  C  55  1  0.19260100  0.71254350  0.53468350  1
  C  56  1  0.21102500  0.74108150  0.54545550  1
  C  57  1  0.25415800  0.76770950  0.52232150  1
  C  58  1  0.34411600  0.78191700  0.48893100  1
  C  59  1  0.37253750  0.82048850  0.47954200  1
  C  60  1  0.37380800  0.85062400  0.44809500  1
  C  61  1  0.34457250  0.83154200  0.43878450  1
  C  62  1  0.39998700  0.89347950  0.42558350  1
  C  63  1  0.39753500  0.91711350  0.39219650  1
  C  64  1  0.36829850  0.89847700  0.38223250  1
  C  65  1  0.34132550  0.85541700  0.40608050  1
  C  66  1  0.33532200  0.74599700  0.52164700  1
  C  67  1  0.35455000  0.74918350  0.54547250  1
  C  68  1  0.38312850  0.78841050  0.53547600  1
  C  69  1  0.39285150  0.82421500  0.50207350  1
  C  82  1  0.32376150  0.78612750  0.46386400  1
  C  91  1  0.54838300  0.24074500  0.23524600  1
  C  92  1  0.55808100  0.22181100  0.26416300  1
  C  93  1  0.58950550  0.25192700  0.26281650  1
  C  94  1  0.59924150  0.29051800  0.23409750  1
  C  95  1  0.63226250  0.32631200  0.22518950  1
  C  96  1  0.65538850  0.32286400  0.24520650  1
  C  97  1  0.64456550  0.28357850  0.27450200  1
  C  98  1  0.61139200  0.24793800  0.28378300  1
  C  99  1  0.53623650  0.17896300  0.29003550  1
  C  100  1  0.50316700  0.15502000  0.28747400  1
  C  101  1  0.49240250  0.17343700  0.25892450  1
  C  102  1  0.51550000  0.21658050  0.23234250  1
  C  103  1  0.54884300  0.30661850  0.21809850  1
  C  104  1  0.55829750  0.33498050  0.17946300  1
  C  105  1  0.58969750  0.33611000  0.14941850  1
  C  106  1  0.59898900  0.30692850  0.16863350  1
  C  107  1  0.61225500  0.36217950  0.10654350  1
  C  108  1  0.64555450  0.35955800  0.08301150  1
  C  109  1  0.65545050  0.33031800  0.10178150  1
  C  110  1  0.63161000  0.30351500  0.14487200  1
  C  111  1  0.51608550  0.29789550  0.25394300  1
  C  112  1  0.49226000  0.31709100  0.25059800  1
  C  113  1  0.50230750  0.34559700  0.21132150  1
  C  114  1  0.53574000  0.35523650  0.17559550  1
  C  127  1  0.57385500  0.28619950  0.21403250  1
  C  136  1  0.54949550  0.78187700  0.69265150  1
  C  137  1  0.55945400  0.82047500  0.66372800  1
  C  138  1  0.58821500  0.85057750  0.66505650  1
  C  139  1  0.59816000  0.83162750  0.69371950  1
  C  140  1  0.62510800  0.85577850  0.70254750  1
  C  141  1  0.64172250  0.89892950  0.68245900  1
  C  142  1  0.63168550  0.91736150  0.65319100  1
  C  143  1  0.60524600  0.89343200  0.64400400  1
  C  144  1  0.54242600  0.82447700  0.63790100  1
  C  145  1  0.51601300  0.78883900  0.64040600  1
  C  146  1  0.50594100  0.74954200  0.66892700  1
  C  147  1  0.52250100  0.74608250  0.69550950  1
  C  148  1  0.59837650  0.76531900  0.70959150  1
  C  149  1  0.58822300  0.73614550  0.74816850  1
  C  150  1  0.55934450  0.73745150  0.77829500  1
  C  151  1  0.54921850  0.76586400  0.75920050  1
  C  152  1  0.54275950  0.71721500  0.82113950  1
  C  153  1  0.51665500  0.72695450  0.84476750  1
  C  154  1  0.50604950  0.75553900  0.82611750  1
  C  155  1  0.52213100  0.77473200  0.78306100  1
  C  156  1  0.62552150  0.76852600  0.67367850  1
  C  157  1  0.64156550  0.74151950  0.67688600  1
  C  158  1  0.63095100  0.71232850  0.71611050  1
  C  159  1  0.60484400  0.70992050  0.75190550  1
  C  172  1  0.57381200  0.78617500  0.71378700  1
  C  181  1  0.34403550  0.56057150  0.16834400  1
  C  182  1  0.37274000  0.55066150  0.14941150  1
  C  183  1  0.37404150  0.52189050  0.17953100  1
  C  184  1  0.34508700  0.51191800  0.21812100  1
  C  185  1  0.34224650  0.48496550  0.25392200  1
  C  186  1  0.36878200  0.46835300  0.25049500  1
  C  187  1  0.39731250  0.47841350  0.21120600  1
  C  188  1  0.39988650  0.50488450  0.17555300  1
  C  189  1  0.39372350  0.56760000  0.10656850  1
  C  190  1  0.38453700  0.59402200  0.08262000  1
  C  191  1  0.35527050  0.60406500  0.10103650  1
  C  192  1  0.33520250  0.58750150  0.14417900  1
  C  193  1  0.27854050  0.51161200  0.23406750  1
  C  194  1  0.25939250  0.52171250  0.26247500  1
  C  195  1  0.28947650  0.55056550  0.26385200  1
  C  196  1  0.32808450  0.56077350  0.23468200  1
  C  197  1  0.28566550  0.56704550  0.29019900  1
  C  198  1  0.32141950  0.59311700  0.28787750  1
  C  199  1  0.36067350  0.60380000  0.25868250  1
  C  200  1  0.36395800  0.58788000  0.23156900  1
  C  201  1  0.25472850  0.48446000  0.22521950  1
  C  202  1  0.21165050  0.46825550  0.24445200  1
  C  203  1  0.19294100  0.47880100  0.27307100  1
  C  204  1  0.21652700  0.50496950  0.28279250  1
  C  217  1  0.32394750  0.53622850  0.21379900  1
  C  226  1  0.80379200  0.56159300  0.70969600  1
  C  227  1  0.77522600  0.55197200  0.74830300  1
  C  228  1  0.77393000  0.52057850  0.77839850  1
  C  229  1  0.80273550  0.51078950  0.75942800  1
  C  230  1  0.80555200  0.47782300  0.78356600  1
  C  231  1  0.77904150  0.45477350  0.82671900  1
  C  232  1  0.75062750  0.46565500  0.84517050  1
  C  233  1  0.74814050  0.49879600  0.82125750  1
  C  234  1  0.75427800  0.57386900  0.75231900  1
  C  235  1  0.76345350  0.60696150  0.71668400  1
  C  236  1  0.79260250  0.61767900  0.67737850  1
  C  237  1  0.81258400  0.59452650  0.67390650  1
  C  238  1  0.86921900  0.56114900  0.69302200  1
  C  239  1  0.88811900  0.55168300  0.66384900  1
  C  240  1  0.85784100  0.52023200  0.66526100  1
  C  241  1  0.81936850  0.51096100  0.69375050  1
  C  242  1  0.86134350  0.49767700  0.64493750  1
  C  243  1  0.82541400  0.46437050  0.65471650  1
  C  244  1  0.78628750  0.45447700  0.68339350  1
  C  245  1  0.78332650  0.47832800  0.70263150  1
  C  246  1  0.89327150  0.59389750  0.69611200  1
  C  247  1  0.93629850  0.61769350  0.66896600  1
  C  248  1  0.95474350  0.60760450  0.63977200  1
  C  249  1  0.93094400  0.57415750  0.63750050  1
  C  262  1  0.82378500  0.53613300  0.71397700  1
  C  541  1  0.73441100  0.34168250  0.61692750  1
  C  542  1  0.71205900  0.32490250  0.65970350  1
  C  543  1  0.70983450  0.34960150  0.67796800  1
  C  544  1  0.73180450  0.39339000  0.65253450  1
  C  545  1  0.75509000  0.41090150  0.60898050  1
  C  547  1  0.75572800  0.38478100  0.59218900  1
  C  549  1  0.68401900  0.32800900  0.72360900  1
  C  553  1  0.77939700  0.45607150  0.57974750  1
  C  557  1  0.73585900  0.31343150  0.60024750  1
  C  560  1  0.72987550  0.41992050  0.67174000  1
  C  563  1  0.11524300  0.73061500  0.60917700  1
  C  564  1  0.08932350  0.74748150  0.61469700  1
  C  565  1  0.04632150  0.72284550  0.64141200  1
  C  566  1  0.02785500  0.67904000  0.66309600  1
  C  567  1  0.05383200  0.66144850  0.65742650  1
  C  569  1  0.09678150  0.68750150  0.63087800  1
  C  571  1  0.02234800  0.74451550  0.64557050  1
  C  575  1  0.03777350  0.61625350  0.67813600  1
  C  579  1  0.16021800  0.75882050  0.57964250  1
  C  582  1  0.98204250  0.65254200  0.69106850  1
  C  585  1  0.41360200  0.72272300  0.31873500  1
  C  586  1  0.43598450  0.70232400  0.31319650  1
  C  587  1  0.43809700  0.68609400  0.28643400  1
  C  588  1  0.41601800  0.68937900  0.26471000  1
  C  589  1  0.39276300  0.70968950  0.27039550  1
  C  591  1  0.39223150  0.72602750  0.29699700  1
  C  593  1  0.46391450  0.66626850  0.28226600  1
  C  597  1  0.36832400  0.71441200  0.24964200  1
  C  601  1  0.41225000  0.73811650  0.34830550  1
  C  604  1  0.41756750  0.67163900  0.23665150  1
  C  607  1  0.03255350  0.34951350  0.31068600  1
  C  608  1  0.05854750  0.36991350  0.26791400  1
  C  609  1  0.10152750  0.38608850  0.24964400  1
  C  610  1  0.11989500  0.38274550  0.27507050  1
  C  611  1  0.09384650  0.36245950  0.31862500  1
  C  613  1  0.05091950  0.34618150  0.33542300  1
  C  615  1  0.12558100  0.40592000  0.20400100  1
  C  619  1  0.10979700  0.35765600  0.34785100  1
  C  623  1  0.98759450  0.33408600  0.32735250  1
  C  626  1  0.16565950  0.40024450  0.25585800  1
  C  629  1  0.42882050  0.07758250  0.26936100  1
  C  630  1  0.42327650  0.05163350  0.25252900  1
  C  631  1  0.39642350  0.00865450  0.27718300  1
  C  632  1  0.37463500  0.99024200  0.32097900  1
  C  633  1  0.38035650  0.01624200  0.33854150  1
  C  635  1  0.40705050  0.05916600  0.31246650  1
  C  637  1  0.39223500  0.98465150  0.25554350  1
  C  641  1  0.35953450  0.00023950  0.38372400  1
  C  645  1  0.45848100  0.12253000  0.24115100  1
  C  648  1  0.34637650  0.94447200  0.34748050  1
  C  651  1  0.42061950  0.69639200  0.65842650  1
  C  652  1  0.37783500  0.67404150  0.67524850  1
  C  653  1  0.35951200  0.67193000  0.65058200  1
  C  654  1  0.38489450  0.69399350  0.60678500  1
  C  655  1  0.42846150  0.71724200  0.58923450  1
  C  657  1  0.44531000  0.71776500  0.61532200  1
  C  659  1  0.31386550  0.64613100  0.67221150  1
  C  663  1  0.45764250  0.74166400  0.54405050  1
  C  667  1  0.43734450  0.69772950  0.68666300  1
  C  670  1  0.36562700  0.69238200  0.58026500  1
  C  673  1  0.72698950  0.99484100  0.65022150  1
  C  674  1  0.76976050  0.02085200  0.62980850  1
  C  675  1  0.78800750  0.06381000  0.61378850  1
  C  676  1  0.76255550  0.08214300  0.61728350  1
  C  677  1  0.71900300  0.05608300  0.63754400  1
  C  679  1  0.70223300  0.01317950  0.65366450  1
  C  681  1  0.83365000  0.08788050  0.59395250  1
  C  685  1  0.68975150  0.07199550  0.64251700  1
  C  689  1  0.71033300  0.94990600  0.66549200  1
  C  692  1  0.78174100  0.12786150  0.60013450  1
  C  695  1  0.71914150  0.37617300  0.27718650  1
  C  696  1  0.72465900  0.39856100  0.29758600  1
  C  697  1  0.75130300  0.40057400  0.31395500  1
  C  698  1  0.77293700  0.37840300  0.31079800  1
  C  699  1  0.76730800  0.35517800  0.29044700  1
  C  701  1  0.74082750  0.35474500  0.27396950  1
  C  703  1  0.75545650  0.42640000  0.33377550  1
  C  707  1  0.78795600  0.33062800  0.28587300  1
  C  711  1  0.68967700  0.37491600  0.26166400  1
  C  714  1  0.80068250  0.37963650  0.32889400  1
  C  717  1  0.38737300  0.68934000  0.00518800  1
  C  718  1  0.40776850  0.73211950  0.97922800  1
  C  719  1  0.42392150  0.75042800  0.93624850  1
  C  720  1  0.42057800  0.72503600  0.91784200  1
  C  721  1  0.40030700  0.68147550  0.94385550  1
  C  723  1  0.38405150  0.66464150  0.98678100  1
  C  725  1  0.44373250  0.79607000  0.91223050  1
  C  729  1  0.39551600  0.65228600  0.92786200  1
  C  733  1  0.37204100  0.67262700  0.05013800  1
  C  736  1  0.43811300  0.74428950  0.87207350  1
  C  739  1  0.76038400  0.68127550  0.62422450  1
  C  740  1  0.73995750  0.68680300  0.60186850  1
  C  741  1  0.72377100  0.71360150  0.59973050  1
  C  742  1  0.72709800  0.73534750  0.62178250  1
  C  743  1  0.74740900  0.72964950  0.64503950  1
  C  745  1  0.76371250  0.70302100  0.64558750  1
  C  747  1  0.70393500  0.71777050  0.57392050  1
  C  751  1  0.75218150  0.75042800  0.66944650  1
  C  755  1  0.77574100  0.65167650  0.62560150  1
  C  758  1  0.70947400  0.76350500  0.62013800  1
  C  761  1  0.76834100  0.39102650  0.92261450  1
  C  762  1  0.78508700  0.38540700  0.94863700  1
  C  763  1  0.76035700  0.35852150  0.99160150  1
  C  764  1  0.71656850  0.33677100  0.00993050  1
  C  765  1  0.69909250  0.34257050  0.98385500  1
  C  767  1  0.72524350  0.36929350  0.94094300  1
  C  769  1  0.78191650  0.35426700  0.01568350  1
  C  773  1  0.65392550  0.32177300  0.99976150  1
  C  777  1  0.79663900  0.42066100  0.87768000  1
  C  780  1  0.69000000  0.30838300  0.05567300  1
  C  783  1  0.37922700  0.38300250  0.30365550  1
  C  784  1  0.36239150  0.34022000  0.32603050  1
  C  785  1  0.38705100  0.32188800  0.32812600  1
  C  786  1  0.43085200  0.34726000  0.30603100  1
  C  787  1  0.44841300  0.39082750  0.28278550  1
  C  789  1  0.42233300  0.40768600  0.28227800  1
  C  791  1  0.36540900  0.27624350  0.35394550  1
  C  795  1  0.49360050  0.41999500  0.25832250  1
  C  799  1  0.35099950  0.39974100  0.30233150  1
  C  802  1  0.45737400  0.32798200  0.30753100  1
  H  25  1  0.72865250  0.28007300  0.39731850  1
  H  26  1  0.72516850  0.21905700  0.44213250  1
  H  27  1  0.73502200  0.16472850  0.48739150  1
  H  28  1  0.75169200  0.12429100  0.53241700  1
  H  29  1  0.83501200  0.23159350  0.52125750  1
  H  30  1  0.82568050  0.35399550  0.40627900  1
  H  31  1  0.87963750  0.27509200  0.40671150  1
  H  32  1  0.98616300  0.36094350  0.39462850  1
  H  33  1  0.94487050  0.37657800  0.43993750  1
  H  34  1  0.75583850  0.28472500  0.52094350  1
  H  35  1  0.89064300  0.38396050  0.48680550  1
  H  36  1  0.82967600  0.37963350  0.53248450  1
  H  39  1  0.83680000  0.16630400  0.54378300  1
  H  41  1  0.73095550  0.32625850  0.54689400  1
  H  43  1  0.94707300  0.27609300  0.38105100  1
  H  45  1  0.77943550  0.37579900  0.38651650  1
  H  70  1  0.39625600  0.79110450  0.55321350  1
  H  71  1  0.41267850  0.85243450  0.49587900  1
  H  72  1  0.42204300  0.90714750  0.43172850  1
  H  73  1  0.41793650  0.94798250  0.37444700  1
  H  74  1  0.32139500  0.84126900  0.39803500  1
  H  75  1  0.31312700  0.71800050  0.52973650  1
  H  76  1  0.39193550  0.79718700  0.39714450  1
  H  77  1  0.31817400  0.71147600  0.37633200  1
  H  78  1  0.25720500  0.69597650  0.43313250  1
  H  79  1  0.26804800  0.78749300  0.53063200  1
  H  80  1  0.20297200  0.68850300  0.49481900  1
  H  81  1  0.16162450  0.69261100  0.55165050  1
  H  84  1  0.36565300  0.90686150  0.33053850  1
  H  86  1  0.20054100  0.74537200  0.59732100  1
  H  88  1  0.41665800  0.79616900  0.33066900  1
  H  90  1  0.31122200  0.69501600  0.59732900  1
  H  115  1  0.48457100  0.35869900  0.20852800  1
  H  116  1  0.54198350  0.37500850  0.14732800  1
  H  117  1  0.60610500  0.38418350  0.09276250  1
  H  118  1  0.66328600  0.37982800  0.05211300  1
  H  119  1  0.63956200  0.28353700  0.15910800  1
  H  120  1  0.50794050  0.27572750  0.28197900  1
  H  121  1  0.64062350  0.35437800  0.20290350  1
  H  122  1  0.66150450  0.28064600  0.28855350  1
  H  123  1  0.60461400  0.21967100  0.30416000  1
  H  124  1  0.50718650  0.23046450  0.21256200  1
  H  125  1  0.54301800  0.16539200  0.31153400  1
  H  126  1  0.48628150  0.12402600  0.30731550  1
  H  129  1  0.70683650  0.32704150  0.09365000  1
  H  131  1  0.44072500  0.16293850  0.25425750  1
  H  133  1  0.70727700  0.37898500  0.20373500  1
  H  135  1  0.44017650  0.27375400  0.30453850  1
  H  160  1  0.64138200  0.69189650  0.71881450  1
  H  161  1  0.59645300  0.68790650  0.78013150  1
  H  162  1  0.55111000  0.69736600  0.83481600  1
  H  163  1  0.50619200  0.71385150  0.87563450  1
  H  164  1  0.51632700  0.79690050  0.76890550  1
  H  165  1  0.63131400  0.78841900  0.64568300  1
  H  166  1  0.63095800  0.84188200  0.72478300  1
  H  167  1  0.64280950  0.94835200  0.63910850  1
  H  168  1  0.59729350  0.90700350  0.62367700  1
  H  169  1  0.51666750  0.71800350  0.71525200  1
  H  170  1  0.55039250  0.85274950  0.61634900  1
  H  171  1  0.50488500  0.79177800  0.62054300  1
  H  174  1  0.49501100  0.79885250  0.83448550  1
  H  176  1  0.49096200  0.69326400  0.67348000  1
  H  178  1  0.65689050  0.90934350  0.72366400  1
  H  180  1  0.65247100  0.74388400  0.62267700  1
  H  205  1  0.16204900  0.46821650  0.28623850  1
  H  206  1  0.20279100  0.51322000  0.30271900  1
  H  207  1  0.25741500  0.55862650  0.31218850  1
  H  208  1  0.31866600  0.60347850  0.30836650  1
  H  209  1  0.39197300  0.59367300  0.21171800  1
  H  210  1  0.26891800  0.47866100  0.20306100  1
  H  211  1  0.32243650  0.47907400  0.28200150  1
  H  212  1  0.41716450  0.46727500  0.20828550  1
  H  213  1  0.42141600  0.51281150  0.14728750  1
  H  214  1  0.31292900  0.59331350  0.15806650  1
  H  215  1  0.41410350  0.55969400  0.09300350  1
  H  216  1  0.39861400  0.60512550  0.05163450  1
  H  219  1  0.41469100  0.61447100  0.25667900  1
  H  221  1  0.31396800  0.61899350  0.09055350  1
  H  223  1  0.36418500  0.45336150  0.30678950  1
  H  225  1  0.20337050  0.45703200  0.20117850  1
  H  250  1  0.98558600  0.62533000  0.61924600  1
  H  251  1  0.94446150  0.56791850  0.61546700  1
  H  252  1  0.88949350  0.50383600  0.62499150  1
  H  253  1  0.82794500  0.44663800  0.64154800  1
  H  254  1  0.75539600  0.47038650  0.72481350  1
  H  255  1  0.87926950  0.60206650  0.71599000  1
  H  256  1  0.82522500  0.46942600  0.76965400  1
  H  257  1  0.73077750  0.44875550  0.87616300  1
  H  258  1  0.72664650  0.50557400  0.83484150  1
  H  259  1  0.83476000  0.60280300  0.64581900  1
  H  260  1  0.73401250  0.56717300  0.78059650  1
  H  261  1  0.74941600  0.62390650  0.71962950  1
  H  264  1  0.73154800  0.40315750  0.72662050  1
  H  266  1  0.83386000  0.66938500  0.62107600  1
  H  268  1  0.78372000  0.40312200  0.83709600  1
  H  270  1  0.94510300  0.66981150  0.67076450  1
  H  546  1  0.69676200  0.29362750  0.67795250  1
  H  548  1  0.77256500  0.39754100  0.56109800  1
  H  550  1  0.66742650  0.29462450  0.73766600  1
  H  551  1  0.66105300  0.33718500  0.73223500  1
  H  552  1  0.70327000  0.33526600  0.73698500  1
  H  554  1  0.80167700  0.47095900  0.58747000  1
  H  555  1  0.75888750  0.46873650  0.58139900  1
  H  556  1  0.79650000  0.46409850  0.54782350  1
  H  558  1  0.70462700  0.28805850  0.61481350  1
  H  559  1  0.75332950  0.30010200  0.60967750  1
  H  561  1  0.69770800  0.40937100  0.69176800  1
  H  562  1  0.74227850  0.45179700  0.64933250  1
  H  568  1  0.10243000  0.77876950  0.59880150  1
  H  570  1  0.11505900  0.67468100  0.62685100  1
  H  572  1  0.04173800  0.77789100  0.62885600  1
  H  573  1  0.00445400  0.73528250  0.67771350  1
  H  574  1  0.00181200  0.73739750  0.63345050  1
  H  576  1  0.01531000  0.60156500  0.67049900  1
  H  577  1  0.02325150  0.60343400  0.71133650  1
  H  578  1  0.06163700  0.60816600  0.66915400  1
  H  580  1  0.17103500  0.78392550  0.58584750  1
  H  581  1  0.16425500  0.77253250  0.54881050  1
  H  583  1  0.97204750  0.66314150  0.71249000  1
  H  584  1  0.97251050  0.62070350  0.71076900  1
  H  590  1  0.45134350  0.69948050  0.32912400  1
  H  592  1  0.37538800  0.74028100  0.30103500  1
  H  594  1  0.48054650  0.66889450  0.29901200  1
  H  595  1  0.48684700  0.68054250  0.25012650  1
  H  596  1  0.44467000  0.63362250  0.29434550  1
  H  598  1  0.34600400  0.68433700  0.25722300  1
  H  599  1  0.38873750  0.73312700  0.21644950  1
  H  600  1  0.35125300  0.72928500  0.25864100  1
  H  602  1  0.44354400  0.75505100  0.34217900  1
  H  603  1  0.39505100  0.71129700  0.37913000  1
  H  605  1  0.44961400  0.68315750  0.21521450  1
  H  606  1  0.40541500  0.68181250  0.21696550  1
  H  612  1  0.04550850  0.37276950  0.24967000  1
  H  614  1  0.03258250  0.33190800  0.36651650  1
  H  616  1  0.10625400  0.40330000  0.18994900  1
  H  617  1  0.14346650  0.39165100  0.19537250  1
  H  618  1  0.14613800  0.43856500  0.19062100  1
  H  620  1  0.13232550  0.38770200  0.34011950  1
  H  621  1  0.12421200  0.33888200  0.34620100  1
  H  622  1  0.08588950  0.34280650  0.37977700  1
  H  624  1  0.97685350  0.31708150  0.31301700  1
  H  625  1  0.98357200  0.36088600  0.31762900  1
  H  627  1  0.17535350  0.38834150  0.23565100  1
  H  628  1  0.17513600  0.39021350  0.27825250  1
  H  634  1  0.43923950  0.06470100  0.22124850  1
  H  636  1  0.41110700  0.07746700  0.32526300  1
  H  638  1  0.40903300  0.00401200  0.22216300  1
  H  639  1  0.36009700  0.96684350  0.26470450  1
  H  640  1  0.40424000  0.96402700  0.26277200  1
  H  642  1  0.36700700  0.97767550  0.39853550  1
  H  643  1  0.32635150  0.98585000  0.39643250  1
  H  644  1  0.36856800  0.02411000  0.39179200  1
  H  646  1  0.45252750  0.13336700  0.21585650  1
  H  647  1  0.48929000  0.12646850  0.22770750  1
  H  649  1  0.32487600  0.93477150  0.33686950  1
  H  650  1  0.32676500  0.93497250  0.37933150  1
  H  656  1  0.35962000  0.65868300  0.70653200  1
  H  658  1  0.47640950  0.73459200  0.60253050  1
  H  660  1  0.29984350  0.62949950  0.70559100  1
  H  661  1  0.30520150  0.62319800  0.66300250  1
  H  662  1  0.30048550  0.66539000  0.66502850  1
  H  664  1  0.44990150  0.76398450  0.52928800  1
  H  665  1  0.45594750  0.72123750  0.53128300  1
  H  666  1  0.48958400  0.75873000  0.53599500  1
  H  668  1  0.42295300  0.66643300  0.71184000  1
  H  669  1  0.42774550  0.71495050  0.70026900  1
  H  671  1  0.34519700  0.66031500  0.59085300  1
  H  672  1  0.38797250  0.70459050  0.54842100  1
  H  678  1  0.78802400  0.00784150  0.62684150  1
  H  680  1  0.67114200  0.99483300  0.66792000  1
  H  682  1  0.84772450  0.06857000  0.59646050  1
  H  683  1  0.84227600  0.10567750  0.60829850  1
  H  684  1  0.84701150  0.10852550  0.56133000  1
  H  686  1  0.69746100  0.09462600  0.61253600  1
  H  687  1  0.69139300  0.08627800  0.66140600  1
  H  688  1  0.65783150  0.04808900  0.65732750  1
  H  690  1  0.72483900  0.93912700  0.68225200  1
  H  691  1  0.71986350  0.94598550  0.63861000  1
  H  693  1  0.80161550  0.13721000  0.61246650  1
  H  694  1  0.75931200  0.13732200  0.61007900  1
  H  700  1  0.70879200  0.41398650  0.30033650  1
  H  702  1  0.73682500  0.33791950  0.25969050  1
  H  704  1  0.73874600  0.44306100  0.33109700  1
  H  705  1  0.78760050  0.44930650  0.31953200  1
  H  706  1  0.74333200  0.40716550  0.36643150  1
  H  708  1  0.78022750  0.30827150  0.31600200  1
  H  709  1  0.82116700  0.35096100  0.26726700  1
  H  710  1  0.77900500  0.31358800  0.27095500  1
  H  712  1  0.69600750  0.40626000  0.24454550  1
  H  713  1  0.65882850  0.35791000  0.28841250  1
  H  715  1  0.82197450  0.41157300  0.31788150  1
  H  716  1  0.82052850  0.36768250  0.31857700  1
  H  722  1  0.41063650  0.75034000  0.99229050  1
  H  724  1  0.36980900  0.63354500  0.00509200  1
  H  726  1  0.44114700  0.81010000  0.93158200  1
  H  727  1  0.42941950  0.80470250  0.89440000  1
  H  728  1  0.47637050  0.80947250  0.89162900  1
  H  730  1  0.42556350  0.66004400  0.90531550  1
  H  731  1  0.37673100  0.65394500  0.91345900  1
  H  732  1  0.38067950  0.62035000  0.95174450  1
  H  734  1  0.35514050  0.68700850  0.06095400  1
  H  735  1  0.39889200  0.68224800  0.05409800  1
  H  737  1  0.42631650  0.76459400  0.86234450  1
  H  738  1  0.42801650  0.72192550  0.86258000  1
  H  744  1  0.73709250  0.67086700  0.58651950  1
  H  746  1  0.77797650  0.69898300  0.66242150  1
  H  748  1  0.70654800  0.70102450  0.55728950  1
  H  749  1  0.71820850  0.74991300  0.55098850  1
  H  750  1  0.67129050  0.70569350  0.59317300  1
  H  752  1  0.72212350  0.74288500  0.69176050  1
  H  753  1  0.77092600  0.78361800  0.64901100  1
  H  754  1  0.76704950  0.74141650  0.68652000  1
  H  756  1  0.79260500  0.65773450  0.59432350  1
  H  757  1  0.74890250  0.62085350  0.64287500  1
  H  759  1  0.72115900  0.78499850  0.58805950  1
  H  760  1  0.71959600  0.78312700  0.63236600  1
  H  766  1  0.81636300  0.40134050  0.93563050  1
  H  768  1  0.71250800  0.37339550  0.92258850  1
  H  770  1  0.81530100  0.37100400  0.99637700  1
  H  771  1  0.77267850  0.32211350  0.03353000  1
  H  772  1  0.77469750  0.36630750  0.03627900  1
  H  774  1  0.63906700  0.32921500  0.02233200  1
  H  775  1  0.64120450  0.28858950  0.01411400  1
  H  776  1  0.64592750  0.33085900  0.97584150  1
  H  778  1  0.82186700  0.41460150  0.86692050  1
  H  779  1  0.81017200  0.45146550  0.87374050  1
  H  781  1  0.70050450  0.28674600  0.06525350  1
  H  782  1  0.65812550  0.28891950  0.06512200  1
  H  788  1  0.33110600  0.32201200  0.34140300  1
  H  790  1  0.43513200  0.43878700  0.26545200  1
  H  792  1  0.33203250  0.26223200  0.37059250  1
  H  793  1  0.37463550  0.26759250  0.37686400  1
  H  794  1  0.37256200  0.26283950  0.33470150  1
  H  796  1  0.50832350  0.41224150  0.23599600  1
  H  797  1  0.50640250  0.41830200  0.27872050  1
  H  798  1  0.50166400  0.45193900  0.24126100  1
  H  800  1  0.32583250  0.38535600  0.33363050  1
  H  801  1  0.33737300  0.39014200  0.28512300  1
  H  803  1  0.44677400  0.30740800  0.33956000  1
  H  804  1  0.48920750  0.35031200  0.29539250  1
  N  38  1  0.80588700  0.14996250  0.55447750  1
  N  40  1  0.75324300  0.33305250  0.55496450  1
  N  42  1  0.96197550  0.30653750  0.37269000  1
  N  44  1  0.77589200  0.35656900  0.37452100  1
  N  83  1  0.37041950  0.92286400  0.34559050  1
  N  85  1  0.18574600  0.73901100  0.58164200  1
  N  87  1  0.39454350  0.76573450  0.34625200  1
  N  89  1  0.34231350  0.71471600  0.58214550  1
  N  128  1  0.69199550  0.33221350  0.07749900  1
  N  130  1  0.45631600  0.14812300  0.26086200  1
  N  132  1  0.69160400  0.35700050  0.23422850  1
  N  134  1  0.45554000  0.30489050  0.28497950  1
  N  173  1  0.48376600  0.76779400  0.85049100  1
  N  175  1  0.48266450  0.71539550  0.66692800  1
  N  177  1  0.66503300  0.92423650  0.69328450  1
  N  179  1  0.66382200  0.73932800  0.64241500  1
  N  218  1  0.39508500  0.62599150  0.26098250  1
  N  220  1  0.34440450  0.62730550  0.07572900  1
  N  222  1  0.37074600  0.44506200  0.28466200  1
  N  224  1  0.18731150  0.44589800  0.23221450  1
  N  263  1  0.75162250  0.41793800  0.69565150  1
  N  265  1  0.80343400  0.65378750  0.64322150  1
  N  267  1  0.77700450  0.41860550  0.85200500  1
  N  269  1  0.96084150  0.65440800  0.66662450  1
