# generated using pymatgen
data_Ti4H17C24(NO6)3
_symmetry_space_group_name_H-M   'P 1'
_cell_length_a   18.05562000
_cell_length_b   19.00345000
_cell_length_c   19.02311000
_cell_angle_alpha   90.00922000
_cell_angle_beta   90.04636000
_cell_angle_gamma   89.95451000
_symmetry_Int_Tables_number   1
_chemical_formula_structural   Ti4H17C24(NO6)3
_chemical_formula_sum   'Ti16 H68 C96 N12 O72'
_cell_volume   6527.18756990
_cell_formula_units_Z   4
loop_
 _symmetry_equiv_pos_site_id
 _symmetry_equiv_pos_as_xyz
  1  'x, y, z'
loop_
 _atom_site_type_symbol
 _atom_site_label
 _atom_site_symmetry_multiplicity
 _atom_site_fract_x
 _atom_site_fract_y
 _atom_site_fract_z
 _atom_site_occupancy
  Ti  Ti1  1  0.50420000  0.79011000  0.92841000  1.0
  Ti  Ti2  1  0.50354000  0.20787000  0.07114000  1.0
  Ti  Ti3  1  0.50194000  0.92896000  0.21055000  1.0
  Ti  Ti4  1  0.50147000  0.07177000  0.78967000  1.0
  Ti  Ti5  1  0.49703000  0.92862000  0.79239000  1.0
  Ti  Ti6  1  0.49836000  0.07226000  0.21012000  1.0
  Ti  Ti7  1  0.49868000  0.79324000  0.07154000  1.0
  Ti  Ti8  1  0.49913000  0.20895000  0.92804000  1.0
  Ti  Ti9  1  0.00281000  0.29230000  0.42814000  1.0
  Ti  Ti10  1  0.99976000  0.57125000  0.29374000  1.0
  Ti  Ti11  1  0.99782000  0.42796000  0.28996000  1.0
  Ti  Ti12  1  0.00021000  0.29279000  0.57123000  1.0
  Ti  Ti13  1  0.99774000  0.70797000  0.57058000  1.0
  Ti  Ti14  1  0.00003000  0.42835000  0.70891000  1.0
  Ti  Ti15  1  0.00313000  0.57167000  0.70959000  1.0
  Ti  Ti16  1  0.00034000  0.71229000  0.42725000  1.0
  H  H1  1  0.30938000  0.85202000  0.30856000  1.0
  H  H2  1  0.68691000  0.14732000  0.69483000  1.0
  H  H3  1  0.69076000  0.85186000  0.30883000  1.0
  H  H4  1  0.31355000  0.14703000  0.69507000  1.0
  H  H5  1  0.69036000  0.30854000  0.14817000  1.0
  H  H6  1  0.68678000  0.69469000  0.85237000  1.0
  H  H7  1  0.68662000  0.14713000  0.30597000  1.0
  H  H8  1  0.31296000  0.85146000  0.69522000  1.0
  H  H9  1  0.31300000  0.14898000  0.30409000  1.0
  H  H10  1  0.69038000  0.85214000  0.69058000  1.0
  H  H11  1  0.69066000  0.30917000  0.85226000  1.0
  H  H12  1  0.31399000  0.69464000  0.14670000  1.0
  H  H13  1  0.31020000  0.30910000  0.85220000  1.0
  H  H14  1  0.68624000  0.69468000  0.14673000  1.0
  H  H15  1  0.81270000  0.80472000  0.64856000  1.0
  H  H16  1  0.19056000  0.19088000  0.35129000  1.0
  H  H17  1  0.19077000  0.80932000  0.64764000  1.0
  H  H18  1  0.18753000  0.35119000  0.80494000  1.0
  H  H19  1  0.81289000  0.35138000  0.80483000  1.0
  H  H20  1  0.81301000  0.80366000  0.35093000  1.0
  H  H21  1  0.18742000  0.80398000  0.35073000  1.0
  H  H22  1  0.18678000  0.35318000  0.19435000  1.0
  H  H23  1  0.81272000  0.35083000  0.19549000  1.0
  H  H24  1  0.18673000  0.64767000  0.80530000  1.0
  H  H25  1  0.00095000  0.42895000  0.42644000  1.0
  H  H26  1  0.00109000  0.57164000  0.57270000  1.0
  H  H27  1  0.99772000  0.42936000  0.57304000  1.0
  H  H28  1  0.00052000  0.57486000  0.43004000  1.0
  H  H29  1  0.50088000  0.92719000  0.92855000  1.0
  H  H30  1  0.50044000  0.07114000  0.07335000  1.0
  H  H31  1  0.49773000  0.92920000  0.07347000  1.0
  H  H32  1  0.49956000  0.07259000  0.92693000  1.0
  H  H33  1  0.99986000  0.61501000  0.06477000  1.0
  H  H34  1  0.99988000  0.06488000  0.38644000  1.0
  H  H35  1  0.99983000  0.07064000  0.61247000  1.0
  H  H36  1  0.99992000  0.93268000  0.39092000  1.0
  H  H37  1  0.99984000  0.38891000  0.06989000  1.0
  H  H38  1  0.99966000  0.61107000  0.93270000  1.0
  H  H39  1  0.49984000  0.11387000  0.43642000  1.0
  H  H40  1  0.49965000  0.43606000  0.88657000  1.0
  H  H41  1  0.49972000  0.43042000  0.11251000  1.0
  H  H42  1  0.49958000  0.56812000  0.89089000  1.0
  H  H43  1  0.50006000  0.10956000  0.56853000  1.0
  H  H44  1  0.50011000  0.88776000  0.43073000  1.0
  H  H45  1  0.78441000  0.13934000  0.61329000  1.0
  H  H46  1  0.86150000  0.19568000  0.61384000  1.0
  H  H47  1  0.21675000  0.14067000  0.61228000  1.0
  H  H48  1  0.13947000  0.19619000  0.61353000  1.0
  H  H49  1  0.21574000  0.61378000  0.13710000  1.0
  H  H50  1  0.13844000  0.61426000  0.19362000  1.0
  H  H51  1  0.78386000  0.61272000  0.13824000  1.0
  H  H52  1  0.86156000  0.61366000  0.19414000  1.0
  H  H53  1  0.78429000  0.61236000  0.85971000  1.0
  H  H54  1  0.86172000  0.61382000  0.80389000  1.0
  H  H55  1  0.50087000  0.53705000  0.17658000  1.0
  H  H56  1  0.50048000  0.62039000  0.13580000  1.0
  H  H57  1  0.28400000  0.35919000  0.11116000  1.0
  H  H58  1  0.36134000  0.30356000  0.11349000  1.0
  H  H59  1  0.49970000  0.82366000  0.53732000  1.0
  H  H60  1  0.49979000  0.86458000  0.62054000  1.0
  H  H61  1  0.28584000  0.63822000  0.88581000  1.0
  H  H62  1  0.36255000  0.69561000  0.88547000  1.0
  H  H63  1  0.00021000  0.96411000  0.67659000  1.0
  H  H64  1  0.00007000  0.88072000  0.63598000  1.0
  H  H65  1  0.78654000  0.13689000  0.38551000  1.0
  H  H66  1  0.86305000  0.19449000  0.38541000  1.0
  H  H67  1  0.99935000  0.32502000  0.96372000  1.0
  H  H68  1  0.99989000  0.36580000  0.88037000  1.0
  C  C1  1  0.49993000  0.34776000  0.99980000  1.0
  C  C2  1  0.49983000  0.65164000  0.00121000  1.0
  C  C3  1  0.49987000  0.00041000  0.34856000  1.0
  C  C4  1  0.50003000  0.99916000  0.65162000  1.0
  C  C5  1  0.99998000  0.50087000  0.15235000  1.0
  C  C6  1  0.00004000  0.49962000  0.84905000  1.0
  C  C7  1  0.99995000  0.15275000  0.49981000  1.0
  C  C8  1  0.99993000  0.84962000  0.50114000  1.0
  C  C9  1  0.99986000  0.92694000  0.50337000  1.0
  C  C10  1  0.99966000  0.07453000  0.50005000  1.0
  C  C11  1  0.99981000  0.49824000  0.92635000  1.0
  C  C12  1  0.99999000  0.50130000  0.07404000  1.0
  C  C13  1  0.50026000  0.99703000  0.57440000  1.0
  C  C14  1  0.50008000  0.00021000  0.42681000  1.0
  C  C15  1  0.49948000  0.57426000  0.00335000  1.0
  C  C16  1  0.49950000  0.42629000  0.00013000  1.0
  C  C17  1  0.99978000  0.96389000  0.43889000  1.0
  C  C18  1  0.99971000  0.03972000  0.56433000  1.0
  C  C19  1  0.99976000  0.56280000  0.96349000  1.0
  C  C20  1  0.99989000  0.43716000  0.03910000  1.0
  C  C21  1  0.99988000  0.56539000  0.03631000  1.0
  C  C22  1  0.99988000  0.43336000  0.96486000  1.0
  C  C23  1  0.99982000  0.96535000  0.56827000  1.0
  C  C24  1  0.99967000  0.03670000  0.43613000  1.0
  C  C25  1  0.49948000  0.53707000  0.93894000  1.0
  C  C26  1  0.49950000  0.46128000  0.06431000  1.0
  C  C27  1  0.50018000  0.93595000  0.46164000  1.0
  C  C28  1  0.50020000  0.06154000  0.53738000  1.0
  C  C29  1  0.50020000  0.93209000  0.53593000  1.0
  C  C30  1  0.50009000  0.06420000  0.46466000  1.0
  C  C31  1  0.49949000  0.53569000  0.06819000  1.0
  C  C32  1  0.49946000  0.46424000  0.93627000  1.0
  C  C33  1  0.68239000  0.22576000  0.77516000  1.0
  C  C34  1  0.31812000  0.77495000  0.22528000  1.0
  C  C35  1  0.31806000  0.22556000  0.77522000  1.0
  C  C36  1  0.68208000  0.77468000  0.22549000  1.0
  C  C37  1  0.68227000  0.22543000  0.22554000  1.0
  C  C38  1  0.31924000  0.77350000  0.77636000  1.0
  C  C39  1  0.31949000  0.22735000  0.22355000  1.0
  C  C40  1  0.68223000  0.77509000  0.77393000  1.0
  C  C41  1  0.18219000  0.27449000  0.27442000  1.0
  C  C42  1  0.81931000  0.72388000  0.72674000  1.0
  C  C43  1  0.81902000  0.27313000  0.27683000  1.0
  C  C44  1  0.18232000  0.72603000  0.72484000  1.0
  C  C45  1  0.18082000  0.27276000  0.72448000  1.0
  C  C46  1  0.81895000  0.72304000  0.27261000  1.0
  C  C47  1  0.81944000  0.27320000  0.72404000  1.0
  C  C48  1  0.18126000  0.72302000  0.27260000  1.0
  C  C49  1  0.11014000  0.69799000  0.30068000  1.0
  C  C50  1  0.89016000  0.30197000  0.69895000  1.0
  C  C51  1  0.89013000  0.69827000  0.30064000  1.0
  C  C52  1  0.10999000  0.30174000  0.69957000  1.0
  C  C53  1  0.11025000  0.69901000  0.69765000  1.0
  C  C54  1  0.89012000  0.30109000  0.30164000  1.0
  C  C55  1  0.89039000  0.69895000  0.69840000  1.0
  C  C56  1  0.11021000  0.30173000  0.30143000  1.0
  C  C57  1  0.61031000  0.80241000  0.80087000  1.0
  C  C58  1  0.39050000  0.19889000  0.19838000  1.0
  C  C59  1  0.39030000  0.80134000  0.80157000  1.0
  C  C60  1  0.61034000  0.19821000  0.19850000  1.0
  C  C61  1  0.61007000  0.80160000  0.19828000  1.0
  C  C62  1  0.39019000  0.19834000  0.80179000  1.0
  C  C63  1  0.39017000  0.80230000  0.19855000  1.0
  C  C64  1  0.61020000  0.19883000  0.80206000  1.0
  C  C65  1  0.71525000  0.19197000  0.71846000  1.0
  C  C66  1  0.28316000  0.80721000  0.28331000  1.0
  C  C67  1  0.28507000  0.19165000  0.71864000  1.0
  C  C68  1  0.71695000  0.80705000  0.28354000  1.0
  C  C69  1  0.71690000  0.28343000  0.19288000  1.0
  C  C70  1  0.28405000  0.71445000  0.80904000  1.0
  C  C71  1  0.28447000  0.28667000  0.19110000  1.0
  C  C72  1  0.71506000  0.71827000  0.80775000  1.0
  C  C73  1  0.28342000  0.28361000  0.80785000  1.0
  C  C74  1  0.71461000  0.71781000  0.19158000  1.0
  C  C75  1  0.71718000  0.28378000  0.80774000  1.0
  C  C76  1  0.28567000  0.71799000  0.19147000  1.0
  C  C77  1  0.28455000  0.19379000  0.28091000  1.0
  C  C78  1  0.71695000  0.80758000  0.71595000  1.0
  C  C79  1  0.71497000  0.19178000  0.28243000  1.0
  C  C80  1  0.28450000  0.80679000  0.71856000  1.0
  C  C81  1  0.78423000  0.30627000  0.21897000  1.0
  C  C82  1  0.21504000  0.69230000  0.78172000  1.0
  C  C83  1  0.21513000  0.30843000  0.21781000  1.0
  C  C84  1  0.78429000  0.69126000  0.78587000  1.0
  C  C85  1  0.78440000  0.21395000  0.69149000  1.0
  C  C86  1  0.21593000  0.78078000  0.30603000  1.0
  C  C87  1  0.21573000  0.21346000  0.69189000  1.0
  C  C88  1  0.78427000  0.78065000  0.30622000  1.0
  C  C89  1  0.21702000  0.21644000  0.30687000  1.0
  C  C90  1  0.78437000  0.78149000  0.69330000  1.0
  C  C91  1  0.78390000  0.21413000  0.30973000  1.0
  C  C92  1  0.21714000  0.78405000  0.69235000  1.0
  C  C93  1  0.21591000  0.30628000  0.78192000  1.0
  C  C94  1  0.78372000  0.69053000  0.21342000  1.0
  C  C95  1  0.78452000  0.30655000  0.78166000  1.0
  C  C96  1  0.21672000  0.69056000  0.21348000  1.0
  N  N1  1  0.81494000  0.17698000  0.63721000  1.0
  N  N2  1  0.18474000  0.17597000  0.63808000  1.0
  N  N3  1  0.18713000  0.63540000  0.17729000  1.0
  N  N4  1  0.81380000  0.63593000  0.17670000  1.0
  N  N5  1  0.81498000  0.63696000  0.82271000  1.0
  N  N6  1  0.49927000  0.56699000  0.13265000  1.0
  N  N7  1  0.31576000  0.32402000  0.13738000  1.0
  N  N8  1  0.50017000  0.86767000  0.56721000  1.0
  N  N9  1  0.31402000  0.67872000  0.86427000  1.0
  N  N10  1  0.99987000  0.93412000  0.63267000  1.0
  N  N11  1  0.81349000  0.17891000  0.36546000  1.0
  N  N12  1  0.00012000  0.36892000  0.93372000  1.0
  O  O1  1  0.50013000  0.31624000  0.94042000  1.0
  O  O2  1  0.49973000  0.05973000  0.31673000  1.0
  O  O3  1  0.50005000  0.05891000  0.68345000  1.0
  O  O4  1  0.49982000  0.68330000  0.94129000  1.0
  O  O5  1  0.99979000  0.18436000  0.44046000  1.0
  O  O6  1  0.99996000  0.56003000  0.18438000  1.0
  O  O7  1  0.99990000  0.44111000  0.18370000  1.0
  O  O8  1  0.00024000  0.18473000  0.55930000  1.0
  O  O9  1  0.93326000  0.30213000  0.49957000  1.0
  O  O10  1  0.93121000  0.69872000  0.49911000  1.0
  O  O11  1  0.93057000  0.49976000  0.30146000  1.0
  O  O12  1  0.93348000  0.50007000  0.69835000  1.0
  O  O13  1  0.58130000  0.22963000  0.85468000  1.0
  O  O14  1  0.41921000  0.77109000  0.14554000  1.0
  O  O15  1  0.41910000  0.22928000  0.85480000  1.0
  O  O16  1  0.58111000  0.77078000  0.14555000  1.0
  O  O17  1  0.58122000  0.14562000  0.22927000  1.0
  O  O18  1  0.41885000  0.85450000  0.77001000  1.0
  O  O19  1  0.41875000  0.14563000  0.22999000  1.0
  O  O20  1  0.58118000  0.85498000  0.77038000  1.0
  O  O21  1  0.41894000  0.14565000  0.77075000  1.0
  O  O22  1  0.58118000  0.85454000  0.22939000  1.0
  O  O23  1  0.58131000  0.14582000  0.77089000  1.0
  O  O24  1  0.41885000  0.85493000  0.22951000  1.0
  O  O25  1  0.42204000  0.22811000  0.14542000  1.0
  O  O26  1  0.58169000  0.77117000  0.85419000  1.0
  O  O27  1  0.58178000  0.22918000  0.14530000  1.0
  O  O28  1  0.42200000  0.77168000  0.85434000  1.0
  O  O29  1  0.92212000  0.27124000  0.35426000  1.0
  O  O30  1  0.91880000  0.73083000  0.64555000  1.0
  O  O31  1  0.91887000  0.35476000  0.73056000  1.0
  O  O32  1  0.92188000  0.64566000  0.27038000  1.0
  O  O33  1  0.92196000  0.64574000  0.72774000  1.0
  O  O34  1  0.91859000  0.35435000  0.27031000  1.0
  O  O35  1  0.91860000  0.72915000  0.35400000  1.0
  O  O36  1  0.92137000  0.27305000  0.64529000  1.0
  O  O37  1  0.50010000  0.10868000  0.89102000  1.0
  O  O38  1  0.50027000  0.89251000  0.10870000  1.0
  O  O39  1  0.50036000  0.10785000  0.10861000  1.0
  O  O40  1  0.50012000  0.89156000  0.89217000  1.0
  O  O41  1  0.99999000  0.39208000  0.39134000  1.0
  O  O42  1  0.00006000  0.60802000  0.60830000  1.0
  O  O43  1  0.00014000  0.39254000  0.60813000  1.0
  O  O44  1  0.99984000  0.60884000  0.39213000  1.0
  O  O45  1  0.06671000  0.69833000  0.49959000  1.0
  O  O46  1  0.06965000  0.30233000  0.49997000  1.0
  O  O47  1  0.06954000  0.49961000  0.69843000  1.0
  O  O48  1  0.06679000  0.49943000  0.30202000  1.0
  O  O49  1  0.50007000  0.68566000  0.05986000  1.0
  O  O50  1  0.49973000  0.94033000  0.68555000  1.0
  O  O51  1  0.49988000  0.94097000  0.31658000  1.0
  O  O52  1  0.49990000  0.31580000  0.05916000  1.0
  O  O53  1  0.99983000  0.81550000  0.55970000  1.0
  O  O54  1  0.00021000  0.44046000  0.81567000  1.0
  O  O55  1  0.99993000  0.55901000  0.81663000  1.0
  O  O56  1  0.99995000  0.81830000  0.44113000  1.0
  O  O57  1  0.56706000  0.99987000  0.80190000  1.0
  O  O58  1  0.43277000  0.00005000  0.19799000  1.0
  O  O59  1  0.43134000  0.00049000  0.80183000  1.0
  O  O60  1  0.56824000  0.00048000  0.20090000  1.0
  O  O61  1  0.56948000  0.80206000  0.00039000  1.0
  O  O62  1  0.43331000  0.19812000  0.00008000  1.0
  O  O63  1  0.43336000  0.80215000  0.99967000  1.0
  O  O64  1  0.56938000  0.19795000  0.99946000  1.0
  O  O65  1  0.08106000  0.72962000  0.64513000  1.0
  O  O66  1  0.08172000  0.27087000  0.35469000  1.0
  O  O67  1  0.07858000  0.64519000  0.27062000  1.0
  O  O68  1  0.08128000  0.35422000  0.73171000  1.0
  O  O69  1  0.08094000  0.35445000  0.27075000  1.0
  O  O70  1  0.08167000  0.64573000  0.72894000  1.0
  O  O71  1  0.07882000  0.27317000  0.64568000  1.0
  O  O72  1  0.08149000  0.72900000  0.35399000  1.0
