# generated using pymatgen
data_CuH24C29(NO2)4
_symmetry_space_group_name_H-M   'P 1'
_cell_length_a   15.23209000
_cell_length_b   19.95423000
_cell_length_c   26.26929000
_cell_angle_alpha   90.00680000
_cell_angle_beta   89.98675000
_cell_angle_gamma   89.76669000
_symmetry_Int_Tables_number   1
_chemical_formula_structural   CuH24C29(NO2)4
_chemical_formula_sum   'Cu8 H192 C232 N32 O64'
_cell_volume   7984.34309001
_cell_formula_units_Z   8
loop_
 _symmetry_equiv_pos_site_id
 _symmetry_equiv_pos_as_xyz
  1  'x, y, z'
loop_
 _atom_site_type_symbol
 _atom_site_label
 _atom_site_symmetry_multiplicity
 _atom_site_fract_x
 _atom_site_fract_y
 _atom_site_fract_z
 _atom_site_occupancy
  Cu  Cu0  1  0.49238000  0.75675000  0.99879000  1
  Cu  Cu1  1  0.99358000  0.74671000  0.50158000  1
  Cu  Cu2  1  0.00676000  0.24417000  0.99808000  1
  Cu  Cu3  1  0.50698000  0.25403000  0.50120000  1
  Cu  Cu4  1  0.50763000  0.24325000  0.00121000  1
  Cu  Cu5  1  0.00642000  0.25329000  0.49842000  1
  Cu  Cu6  1  0.99325000  0.75583000  0.00192000  1
  Cu  Cu7  1  0.49303000  0.74597000  0.49881000  1
  H  H8  1  0.82002000  0.90539000  0.24570000  1
  H  H9  1  0.84843000  0.96804000  0.19947000  1
  H  H10  1  0.75916000  0.91145000  0.03396000  1
  H  H11  1  0.66178000  0.84087000  0.97901000  1
  H  H12  1  0.51314000  0.78293000  0.10397000  1
  H  H13  1  0.60408000  0.84998000  0.16311000  1
  H  H14  1  0.79315000  0.07882000  0.30599000  1
  H  H15  1  0.87843000  0.04778000  0.26589000  1
  H  H16  1  0.80297000  0.90750000  0.39209000  1
  H  H17  1  0.83243000  0.81200000  0.45083000  1
  H  H18  1  0.10173000  0.83684000  0.43867000  1
  H  H19  1  0.08345000  0.93521000  0.38084000  1
  H  H20  1  0.63107000  0.06128000  0.77195000  1
  H  H21  1  0.71142000  0.07267000  0.82048000  1
  H  H22  1  0.48625000  0.01670000  0.95055000  1
  H  H23  1  0.42486000  0.92071000  0.00022000  1
  H  H24  1  0.52192000  0.78314000  0.89639000  1
  H  H25  1  0.59199000  0.87210000  0.84457000  1
  H  H26  1  0.64669000  0.97050000  0.70892000  1
  H  H27  1  0.67479000  0.90685000  0.75317000  1
  H  H28  1  0.89952000  0.92027000  0.64126000  1
  H  H29  1  0.00186000  0.87292000  0.57763000  1
  H  H30  1  0.83091000  0.71789000  0.54257000  1
  H  H31  1  0.71913000  0.76050000  0.60390000  1
  H  H32  1  0.31774000  0.59509000  0.25220000  1
  H  H33  1  0.34750000  0.53357000  0.29919000  1
  H  H34  1  0.25807000  0.58896000  0.46447000  1
  H  H35  1  0.16125000  0.65940000  0.52012000  1
  H  H36  1  0.01017000  0.71889000  0.39627000  1
  H  H37  1  0.10061000  0.65219000  0.33627000  1
  H  H38  1  0.29811000  0.42208000  0.19275000  1
  H  H39  1  0.38109000  0.45465000  0.23351000  1
  H  H40  1  0.30330000  0.59412000  0.10699000  1
  H  H41  1  0.33104000  0.68993000  0.04859000  1
  H  H42  1  0.60088000  0.66543000  0.06056000  1
  H  H43  1  0.58420000  0.56653000  0.11776000  1
  H  H44  1  0.13354000  0.43904000  0.72899000  1
  H  H45  1  0.21366000  0.42695000  0.68028000  1
  H  H46  1  0.98799000  0.48293000  0.55042000  1
  H  H47  1  0.92561000  0.57899000  0.50075000  1
  H  H48  1  0.02188000  0.71661000  0.60401000  1
  H  H49  1  0.09338000  0.62784000  0.65575000  1
  H  H50  1  0.14749000  0.52880000  0.79131000  1
  H  H51  1  0.17747000  0.59347000  0.74838000  1
  H  H52  1  0.40156000  0.57861000  0.86025000  1
  H  H53  1  0.50383000  0.62759000  0.92286000  1
  H  H54  1  0.33135000  0.78336000  0.95616000  1
  H  H55  1  0.21954000  0.73943000  0.89578000  1
  H  H56  1  0.68024000  0.09512000  0.24535000  1
  H  H57  1  0.65219000  0.03238000  0.19914000  1
  H  H58  1  0.74228000  0.08822000  0.03398000  1
  H  H59  1  0.83809000  0.15976000  0.97895000  1
  H  H60  1  0.98744000  0.21802000  0.10345000  1
  H  H61  1  0.89793000  0.15053000  0.16279000  1
  H  H62  1  0.70519000  0.92113000  0.30518000  1
  H  H63  1  0.62048000  0.95372000  0.26539000  1
  H  H64  1  0.69579000  0.09190000  0.39174000  1
  H  H65  1  0.66747000  0.18745000  0.45046000  1
  H  H66  1  0.39791000  0.16366000  0.43901000  1
  H  H67  1  0.41497000  0.06537000  0.38119000  1
  H  H68  1  0.86690000  0.93893000  0.77187000  1
  H  H69  1  0.78722000  0.92698000  0.82069000  1
  H  H70  1  0.01253000  0.98338000  0.95027000  1
  H  H71  1  0.07449000  0.07925000  0.99983000  1
  H  H72  1  0.97790000  0.21685000  0.89602000  1
  H  H73  1  0.90698000  0.12804000  0.84444000  1
  H  H74  1  0.85075000  0.02838000  0.70870000  1
  H  H75  1  0.82330000  0.09230000  0.75295000  1
  H  H76  1  0.59845000  0.07964000  0.64081000  1
  H  H77  1  0.49700000  0.12773000  0.57674000  1
  H  H78  1  0.66960000  0.28205000  0.54276000  1
  H  H79  1  0.78044000  0.23862000  0.60434000  1
  H  H80  1  0.18193000  0.40510000  0.25246000  1
  H  H81  1  0.15266000  0.46690000  0.29913000  1
  H  H82  1  0.24101000  0.41062000  0.46454000  1
  H  H83  1  0.33906000  0.34094000  0.52021000  1
  H  H84  1  0.48972000  0.28166000  0.39600000  1
  H  H85  1  0.39796000  0.34802000  0.33611000  1
  H  H86  1  0.20391000  0.57613000  0.19118000  1
  H  H87  1  0.12069000  0.54577000  0.23269000  1
  H  H88  1  0.19740000  0.40510000  0.10655000  1
  H  H89  1  0.16877000  0.30959000  0.04797000  1
  H  H90  1  0.89915000  0.33474000  0.06061000  1
  H  H91  1  0.91664000  0.43341000  0.11828000  1
  H  H92  1  0.36831000  0.56098000  0.72864000  1
  H  H93  1  0.28729000  0.57292000  0.68051000  1
  H  H94  1  0.51289000  0.51698000  0.55001000  1
  H  H95  1  0.57527000  0.42070000  0.50022000  1
  H  H96  1  0.47845000  0.28331000  0.60374000  1
  H  H97  1  0.40774000  0.37247000  0.65561000  1
  H  H98  1  0.35403000  0.47013000  0.79163000  1
  H  H99  1  0.32427000  0.40602000  0.74819000  1
  H  H100  1  0.09997000  0.42152000  0.85994000  1
  H  H101  1  0.99662000  0.37271000  0.92205000  1
  H  H102  1  0.16825000  0.21647000  0.95591000  1
  H  H103  1  0.28104000  0.26063000  0.89621000  1
  H  H104  1  0.17999000  0.09461000  0.75431000  1
  H  H105  1  0.15157000  0.03196000  0.80053000  1
  H  H106  1  0.24085000  0.08855000  0.96605000  1
  H  H107  1  0.33823000  0.15913000  0.02099000  1
  H  H108  1  0.48686000  0.21706000  0.89603000  1
  H  H109  1  0.39593000  0.15002000  0.83689000  1
  H  H110  1  0.20686000  0.92118000  0.69401000  1
  H  H111  1  0.12158000  0.95222000  0.73411000  1
  H  H112  1  0.19704000  0.09250000  0.60791000  1
  H  H113  1  0.16758000  0.18799000  0.54917000  1
  H  H114  1  0.89828000  0.16316000  0.56133000  1
  H  H115  1  0.91656000  0.06479000  0.61916000  1
  H  H116  1  0.36893000  0.93872000  0.22805000  1
  H  H117  1  0.28859000  0.92733000  0.17952000  1
  H  H118  1  0.51375000  0.98330000  0.04945000  1
  H  H119  1  0.57515000  0.07929000  0.99978000  1
  H  H120  1  0.47808000  0.21686000  0.10361000  1
  H  H121  1  0.40801000  0.12789000  0.15543000  1
  H  H122  1  0.35332000  0.02950000  0.29108000  1
  H  H123  1  0.32522000  0.09315000  0.24683000  1
  H  H124  1  0.10049000  0.07973000  0.35874000  1
  H  H125  1  0.99815000  0.12708000  0.42237000  1
  H  H126  1  0.16910000  0.28211000  0.45743000  1
  H  H127  1  0.28087000  0.23950000  0.39610000  1
  H  H128  1  0.68227000  0.40491000  0.74780000  1
  H  H129  1  0.65251000  0.46643000  0.70081000  1
  H  H130  1  0.74194000  0.41104000  0.53553000  1
  H  H131  1  0.83876000  0.34060000  0.47988000  1
  H  H132  1  0.98983000  0.28111000  0.60373000  1
  H  H133  1  0.89940000  0.34781000  0.66373000  1
  H  H134  1  0.70190000  0.57792000  0.80725000  1
  H  H135  1  0.61892000  0.54535000  0.76649000  1
  H  H136  1  0.69670000  0.40588000  0.89301000  1
  H  H137  1  0.66896000  0.31007000  0.95141000  1
  H  H138  1  0.39913000  0.33457000  0.93944000  1
  H  H139  1  0.41580000  0.43347000  0.88225000  1
  H  H140  1  0.86646000  0.56096000  0.27101000  1
  H  H141  1  0.78634000  0.57305000  0.31972000  1
  H  H142  1  0.01202000  0.51707000  0.44958000  1
  H  H143  1  0.07440000  0.42101000  0.49925000  1
  H  H144  1  0.97812000  0.28339000  0.39599000  1
  H  H145  1  0.90663000  0.37216000  0.34425000  1
  H  H146  1  0.85252000  0.47120000  0.20869000  1
  H  H147  1  0.82253000  0.40653000  0.25162000  1
  H  H148  1  0.59845000  0.42139000  0.13975000  1
  H  H149  1  0.49618000  0.37241000  0.07714000  1
  H  H150  1  0.66865000  0.21664000  0.04384000  1
  H  H151  1  0.78046000  0.26057000  0.10422000  1
  H  H152  1  0.31977000  0.90488000  0.75465000  1
  H  H153  1  0.34781000  0.96762000  0.80086000  1
  H  H154  1  0.25773000  0.91178000  0.96602000  1
  H  H155  1  0.16192000  0.84024000  0.02105000  1
  H  H156  1  0.01256000  0.78197000  0.89655000  1
  H  H157  1  0.10208000  0.84947000  0.83721000  1
  H  H158  1  0.29481000  0.07887000  0.69482000  1
  H  H159  1  0.37952000  0.04628000  0.73461000  1
  H  H160  1  0.30422000  0.90810000  0.60826000  1
  H  H161  1  0.33253000  0.81254000  0.54954000  1
  H  H162  1  0.60210000  0.83634000  0.56099000  1
  H  H163  1  0.58504000  0.93463000  0.61881000  1
  H  H164  1  0.13310000  0.06107000  0.22814000  1
  H  H165  1  0.21279000  0.07302000  0.17931000  1
  H  H166  1  0.98747000  0.01662000  0.04973000  1
  H  H167  1  0.92551000  0.92075000  0.00017000  1
  H  H168  1  0.02211000  0.78314000  0.10398000  1
  H  H169  1  0.09303000  0.87196000  0.15556000  1
  H  H170  1  0.14925000  0.97162000  0.29130000  1
  H  H171  1  0.17671000  0.90770000  0.24705000  1
  H  H172  1  0.40156000  0.92036000  0.35919000  1
  H  H173  1  0.50300000  0.87227000  0.42326000  1
  H  H174  1  0.33041000  0.71795000  0.45724000  1
  H  H175  1  0.21956000  0.76138000  0.39567000  1
  H  H176  1  0.81808000  0.59490000  0.74754000  1
  H  H177  1  0.84735000  0.53310000  0.70087000  1
  H  H178  1  0.75900000  0.58938000  0.53546000  1
  H  H179  1  0.66095000  0.65906000  0.47979000  1
  H  H180  1  0.51028000  0.71834000  0.60400000  1
  H  H181  1  0.60204000  0.65198000  0.66389000  1
  H  H182  1  0.79609000  0.42387000  0.80882000  1
  H  H183  1  0.87931000  0.45423000  0.76731000  1
  H  H184  1  0.80260000  0.59490000  0.89345000  1
  H  H185  1  0.83124000  0.69041000  0.95204000  1
  H  H186  1  0.10086000  0.66526000  0.93940000  1
  H  H187  1  0.08337000  0.56659000  0.88172000  1
  H  H188  1  0.63169000  0.43902000  0.27136000  1
  H  H189  1  0.71271000  0.42708000  0.31949000  1
  H  H190  1  0.48712000  0.48302000  0.44999000  1
  H  H191  1  0.42474000  0.57930000  0.49978000  1
  H  H192  1  0.52156000  0.71669000  0.39626000  1
  H  H193  1  0.59226000  0.62753000  0.34439000  1
  H  H194  1  0.64597000  0.52987000  0.20837000  1
  H  H195  1  0.67573000  0.59398000  0.25181000  1
  H  H196  1  0.90004000  0.57848000  0.14006000  1
  H  H197  1  0.00339000  0.62729000  0.07795000  1
  H  H198  1  0.83175000  0.78353000  0.04409000  1
  H  H199  1  0.71897000  0.73937000  0.10379000  1
  C  C200  1  0.79477000  0.94622000  0.22171000  1
  C  C201  1  0.75627000  0.91880000  0.13603000  1
  C  C202  1  0.69168000  0.88502000  0.10348000  1
  C  C203  1  0.70522000  0.88309000  0.05031000  1
  C  C204  1  0.65186000  0.84376000  0.02003000  1
  C  C205  1  0.56867000  0.81155000  0.08992000  1
  C  C206  1  0.61923000  0.84943000  0.12272000  1
  C  C207  1  0.82035000  0.03358000  0.28806000  1
  C  C208  1  0.93100000  0.98182000  0.34226000  1
  C  C209  1  0.94159000  0.92933000  0.38085000  1
  C  C210  1  0.86990000  0.89389000  0.40188000  1
  C  C211  1  0.88607000  0.84057000  0.43436000  1
  C  C212  1  0.03678000  0.85500000  0.42807000  1
  C  C213  1  0.02651000  0.90950000  0.39598000  1
  C  C214  1  0.68032000  0.03564000  0.79553000  1
  C  C215  1  0.58874000  0.00834000  0.86655000  1
  C  C216  1  0.54789000  0.95235000  0.89464000  1
  C  C217  1  0.49867000  0.96529000  0.93876000  1
  C  C218  1  0.46294000  0.91206000  0.96572000  1
  C  C219  1  0.51715000  0.83551000  0.90772000  1
  C  C220  1  0.55652000  0.88515000  0.87908000  1
  C  C221  1  0.70152000  0.94735000  0.72973000  1
  C  C222  1  0.73529000  0.86543000  0.66684000  1
  C  C223  1  0.79965000  0.84380000  0.62817000  1
  C  C224  1  0.88048000  0.87616000  0.61962000  1
  C  C225  1  0.93846000  0.84949000  0.58417000  1
  C  C226  1  0.84245000  0.76342000  0.56426000  1
  C  C227  1  0.78069000  0.78695000  0.59851000  1
  C  C228  1  0.29329000  0.55484000  0.27692000  1
  C  C229  1  0.25235000  0.58057000  0.36292000  1
  C  C230  1  0.18904000  0.61576000  0.39539000  1
  C  C231  1  0.20363000  0.61758000  0.44849000  1
  C  C232  1  0.15060000  0.65692000  0.47919000  1
  C  C233  1  0.06610000  0.68998000  0.40986000  1
  C  C234  1  0.11649000  0.65227000  0.37656000  1
  C  C235  1  0.32279000  0.46769000  0.21112000  1
  C  C236  1  0.43203000  0.52010000  0.15672000  1
  C  C237  1  0.44209000  0.57278000  0.11840000  1
  C  C238  1  0.37001000  0.60827000  0.09749000  1
  C  C239  1  0.38522000  0.66185000  0.06527000  1
  C  C240  1  0.53616000  0.64748000  0.07140000  1
  C  C241  1  0.52680000  0.59259000  0.10315000  1
  C  C242  1  0.18274000  0.46420000  0.70525000  1
  C  C243  1  0.08962000  0.49137000  0.63475000  1
  C  C244  1  0.04900000  0.54727000  0.60624000  1
  C  C245  1  0.99980000  0.53432000  0.56226000  1
  C  C246  1  0.96345000  0.58761000  0.53528000  1
  C  C247  1  0.01729000  0.66419000  0.59289000  1
  C  C248  1  0.05747000  0.61454000  0.62156000  1
  C  C249  1  0.20312000  0.55195000  0.77142000  1
  C  C250  1  0.23648000  0.63290000  0.83480000  1
  C  C251  1  0.30083000  0.65538000  0.87284000  1
  C  C252  1  0.38202000  0.62308000  0.88140000  1
  C  C253  1  0.44002000  0.65078000  0.91639000  1
  C  C254  1  0.34318000  0.73732000  0.93525000  1
  C  C255  1  0.28131000  0.71293000  0.90145000  1
  C  C256  1  0.70575000  0.05421000  0.22148000  1
  C  C257  1  0.74610000  0.08032000  0.13582000  1
  C  C258  1  0.81002000  0.11473000  0.10337000  1
  C  C259  1  0.79609000  0.11682000  0.05024000  1
  C  C260  1  0.84862000  0.15668000  0.01988000  1
  C  C261  1  0.93211000  0.18908000  0.08953000  1
  C  C262  1  0.88223000  0.15087000  0.12246000  1
  C  C263  1  0.67865000  0.96694000  0.28778000  1
  C  C264  1  0.56768000  0.01869000  0.34183000  1
  C  C265  1  0.55698000  0.07085000  0.38047000  1
  C  C266  1  0.62899000  0.10584000  0.40158000  1
  C  C267  1  0.61350000  0.15921000  0.43409000  1
  C  C268  1  0.46268000  0.14539000  0.42817000  1
  C  C269  1  0.47230000  0.09087000  0.39600000  1
  C  C270  1  0.81750000  0.96422000  0.79558000  1
  C  C271  1  0.90845000  0.99189000  0.86671000  1
  C  C272  1  0.95066000  0.04772000  0.89446000  1
  C  C273  1  0.00020000  0.03474000  0.93841000  1
  C  C274  1  0.03639000  0.08790000  0.96536000  1
  C  C275  1  0.98250000  0.16450000  0.90739000  1
  C  C276  1  0.94265000  0.11492000  0.87881000  1
  C  C277  1  0.79620000  0.05187000  0.72957000  1
  C  C278  1  0.76306000  0.13396000  0.66676000  1
  C  C279  1  0.69909000  0.15564000  0.62791000  1
  C  C280  1  0.61804000  0.12360000  0.61919000  1
  C  C281  1  0.56058000  0.15076000  0.58361000  1
  C  C282  1  0.65746000  0.23651000  0.56421000  1
  C  C283  1  0.71876000  0.21246000  0.59855000  1
  C  C284  1  0.20687000  0.44534000  0.27704000  1
  C  C285  1  0.24527000  0.41793000  0.36299000  1
  C  C286  1  0.30985000  0.38394000  0.39553000  1
  C  C287  1  0.29571000  0.38226000  0.44862000  1
  C  C288  1  0.34942000  0.34334000  0.47924000  1
  C  C289  1  0.43375000  0.31052000  0.40966000  1
  C  C290  1  0.38275000  0.34800000  0.37649000  1
  C  C291  1  0.17886000  0.53142000  0.21057000  1
  C  C292  1  0.06987000  0.47924000  0.15658000  1
  C  C293  1  0.05876000  0.42671000  0.11830000  1
  C  C294  1  0.13053000  0.39124000  0.09713000  1
  C  C295  1  0.11485000  0.33789000  0.06476000  1
  C  C296  1  0.96398000  0.35266000  0.07134000  1
  C  C297  1  0.97374000  0.40731000  0.10329000  1
  C  C298  1  0.31893000  0.53565000  0.70517000  1
  C  C299  1  0.41037000  0.50875000  0.63383000  1
  C  C300  1  0.45168000  0.45280000  0.60567000  1
  C  C301  1  0.50118000  0.46553000  0.56173000  1
  C  C302  1  0.53749000  0.41214000  0.53484000  1
  C  C303  1  0.48332000  0.33576000  0.59263000  1
  C  C304  1  0.44343000  0.38557000  0.62126000  1
  C  C305  1  0.29855000  0.44741000  0.77134000  1
  C  C306  1  0.26544000  0.36704000  0.83516000  1
  C  C307  1  0.20044000  0.34486000  0.87306000  1
  C  C308  1  0.11909000  0.37705000  0.88126000  1
  C  C309  1  0.06051000  0.34951000  0.91586000  1
  C  C310  1  0.15683000  0.26276000  0.93509000  1
  C  C311  1  0.21926000  0.28712000  0.90177000  1
  C  C312  1  0.74983000  0.00021000  0.25458000  1
  C  C313  1  0.74878000  0.99974000  0.76238000  1
  C  C314  1  0.25052000  0.49982000  0.24434000  1
  C  C315  1  0.25100000  0.49981000  0.73847000  1
  C  C316  1  0.20524000  0.05378000  0.77829000  1
  C  C317  1  0.24374000  0.08120000  0.86397000  1
  C  C318  1  0.30833000  0.11498000  0.89652000  1
  C  C319  1  0.29479000  0.11691000  0.94969000  1
  C  C320  1  0.34815000  0.15624000  0.97997000  1
  C  C321  1  0.43134000  0.18845000  0.91008000  1
  C  C322  1  0.38078000  0.15057000  0.87729000  1
  C  C323  1  0.17966000  0.96642000  0.71194000  1
  C  C324  1  0.06901000  0.01818000  0.65773000  1
  C  C325  1  0.05842000  0.07067000  0.61915000  1
  C  C326  1  0.13010000  0.10611000  0.59812000  1
  C  C327  1  0.11393000  0.15943000  0.56564000  1
  C  C328  1  0.96323000  0.14500000  0.57193000  1
  C  C329  1  0.97350000  0.09050000  0.60402000  1
  C  C330  1  0.31969000  0.96436000  0.20448000  1
  C  C331  1  0.41126000  0.99167000  0.13346000  1
  C  C332  1  0.45212000  0.04765000  0.10536000  1
  C  C333  1  0.50133000  0.03471000  0.06124000  1
  C  C334  1  0.53707000  0.08794000  0.03428000  1
  C  C335  1  0.48286000  0.16449000  0.09228000  1
  C  C336  1  0.44349000  0.11485000  0.12092000  1
  C  C337  1  0.29848000  0.05265000  0.27027000  1
  C  C338  1  0.26471000  0.13457000  0.33316000  1
  C  C339  1  0.20036000  0.15620000  0.37184000  1
  C  C340  1  0.11952000  0.12384000  0.38038000  1
  C  C341  1  0.06155000  0.15051000  0.41583000  1
  C  C342  1  0.15756000  0.23658000  0.43574000  1
  C  C343  1  0.21932000  0.21305000  0.40149000  1
  C  C344  1  0.70671000  0.44516000  0.72309000  1
  C  C345  1  0.74765000  0.41943000  0.63708000  1
  C  C346  1  0.81097000  0.38424000  0.60461000  1
  C  C347  1  0.79637000  0.38242000  0.55151000  1
  C  C348  1  0.84940000  0.34308000  0.52081000  1
  C  C349  1  0.93391000  0.31002000  0.59014000  1
  C  C350  1  0.88352000  0.34773000  0.62344000  1
  C  C351  1  0.67722000  0.53231000  0.78888000  1
  C  C352  1  0.56798000  0.47990000  0.84328000  1
  C  C353  1  0.55792000  0.42722000  0.88160000  1
  C  C354  1  0.63000000  0.39173000  0.90251000  1
  C  C355  1  0.61478000  0.33814000  0.93473000  1
  C  C356  1  0.46385000  0.35252000  0.92860000  1
  C  C357  1  0.47321000  0.40741000  0.89685000  1
  C  C358  1  0.81726000  0.53580000  0.29475000  1
  C  C359  1  0.91038000  0.50863000  0.36525000  1
  C  C360  1  0.95101000  0.45273000  0.39376000  1
  C  C361  1  0.00021000  0.46568000  0.43774000  1
  C  C362  1  0.03655000  0.41238000  0.46472000  1
  C  C363  1  0.98272000  0.33581000  0.40711000  1
  C  C364  1  0.94254000  0.38546000  0.37845000  1
  C  C365  1  0.79689000  0.44805000  0.22858000  1
  C  C366  1  0.76353000  0.36710000  0.16520000  1
  C  C367  1  0.69918000  0.34462000  0.12716000  1
  C  C368  1  0.61798000  0.37692000  0.11860000  1
  C  C369  1  0.55999000  0.34922000  0.08361000  1
  C  C370  1  0.65683000  0.26268000  0.06475000  1
  C  C371  1  0.71870000  0.28707000  0.09855000  1
  C  C372  1  0.29426000  0.94579000  0.77852000  1
  C  C373  1  0.25390000  0.91968000  0.86418000  1
  C  C374  1  0.18999000  0.88527000  0.89663000  1
  C  C375  1  0.20391000  0.88318000  0.94976000  1
  C  C376  1  0.15139000  0.84332000  0.98012000  1
  C  C377  1  0.06790000  0.81092000  0.91047000  1
  C  C378  1  0.11778000  0.84913000  0.87754000  1
  C  C379  1  0.32135000  0.03306000  0.71222000  1
  C  C380  1  0.43233000  0.98131000  0.65817000  1
  C  C381  1  0.44303000  0.92915000  0.61953000  1
  C  C382  1  0.37101000  0.89416000  0.59842000  1
  C  C383  1  0.38650000  0.84079000  0.56591000  1
  C  C384  1  0.53733000  0.85461000  0.57183000  1
  C  C385  1  0.52771000  0.90913000  0.60400000  1
  C  C386  1  0.18250000  0.03578000  0.20442000  1
  C  C387  1  0.09156000  0.00812000  0.13329000  1
  C  C388  1  0.04934000  0.95228000  0.10554000  1
  C  C389  1  0.99980000  0.96526000  0.06159000  1
  C  C390  1  0.96361000  0.91210000  0.03464000  1
  C  C391  1  0.01751000  0.83550000  0.09261000  1
  C  C392  1  0.05736000  0.88508000  0.12119000  1
  C  C393  1  0.20380000  0.94813000  0.27043000  1
  C  C394  1  0.23695000  0.86604000  0.33324000  1
  C  C395  1  0.30092000  0.84436000  0.37209000  1
  C  C396  1  0.38197000  0.87640000  0.38081000  1
  C  C397  1  0.43943000  0.84924000  0.41639000  1
  C  C398  1  0.34255000  0.76349000  0.43579000  1
  C  C399  1  0.28125000  0.78754000  0.40145000  1
  C  C400  1  0.79314000  0.55466000  0.72296000  1
  C  C401  1  0.75473000  0.58207000  0.63701000  1
  C  C402  1  0.69015000  0.61606000  0.60447000  1
  C  C403  1  0.70430000  0.61774000  0.55138000  1
  C  C404  1  0.65059000  0.65666000  0.52076000  1
  C  C405  1  0.56626000  0.68948000  0.59035000  1
  C  C406  1  0.61726000  0.65200000  0.62351000  1
  C  C407  1  0.82114000  0.46858000  0.78943000  1
  C  C408  1  0.93013000  0.52076000  0.84343000  1
  C  C409  1  0.94125000  0.57329000  0.88170000  1
  C  C410  1  0.86947000  0.60876000  0.90287000  1
  C  C411  1  0.88515000  0.66211000  0.93524000  1
  C  C412  1  0.03602000  0.64734000  0.92866000  1
  C  C413  1  0.02627000  0.59269000  0.89671000  1
  C  C414  1  0.68108000  0.46435000  0.29484000  1
  C  C415  1  0.58964000  0.49125000  0.36617000  1
  C  C416  1  0.54832000  0.54719000  0.39433000  1
  C  C417  1  0.49882000  0.53447000  0.43827000  1
  C  C418  1  0.46252000  0.58786000  0.46516000  1
  C  C419  1  0.51669000  0.66424000  0.40737000  1
  C  C420  1  0.55657000  0.61443000  0.37874000  1
  C  C421  1  0.70146000  0.55258000  0.22866000  1
  C  C422  1  0.73456000  0.63296000  0.16484000  1
  C  C423  1  0.79956000  0.65514000  0.12694000  1
  C  C424  1  0.88091000  0.62295000  0.11875000  1
  C  C425  1  0.93950000  0.65049000  0.08415000  1
  C  C426  1  0.84317000  0.73724000  0.06491000  1
  C  C427  1  0.78075000  0.71288000  0.09823000  1
  C  C428  1  0.25018000  0.99979000  0.74542000  1
  C  C429  1  0.25122000  0.00026000  0.23762000  1
  C  C430  1  0.74949000  0.50018000  0.75566000  1
  C  C431  1  0.74901000  0.50019000  0.26153000  1
  N  N432  1  0.58489000  0.80601000  0.03910000  1
  N  N433  1  0.96814000  0.81923000  0.44670000  1
  N  N434  1  0.47133000  0.84723000  0.95117000  1
  N  N435  1  0.92221000  0.79260000  0.55732000  1
  N  N436  1  0.08284000  0.69476000  0.46068000  1
  N  N437  1  0.46707000  0.68354000  0.05306000  1
  N  N438  1  0.97124000  0.65233000  0.54975000  1
  N  N439  1  0.42311000  0.70812000  0.94242000  1
  N  N440  1  0.91536000  0.19478000  0.03876000  1
  N  N441  1  0.53162000  0.18107000  0.44651000  1
  N  N442  1  0.02821000  0.15272000  0.95079000  1
  N  N443  1  0.57753000  0.20762000  0.55700000  1
  N  N444  1  0.41729000  0.30576000  0.46050000  1
  N  N445  1  0.03281000  0.31663000  0.05270000  1
  N  N446  1  0.52934000  0.34741000  0.54937000  1
  N  N447  1  0.07676000  0.29196000  0.94195000  1
  N  N448  1  0.41512000  0.19399000  0.96090000  1
  N  N449  1  0.03187000  0.18077000  0.55330000  1
  N  N450  1  0.52867000  0.15277000  0.04883000  1
  N  N451  1  0.07780000  0.20740000  0.44269000  1
  N  N452  1  0.91717000  0.30524000  0.53932000  1
  N  N453  1  0.53294000  0.31646000  0.94694000  1
  N  N454  1  0.02876000  0.34767000  0.45025000  1
  N  N455  1  0.57690000  0.29188000  0.05758000  1
  N  N456  1  0.08465000  0.80522000  0.96124000  1
  N  N457  1  0.46838000  0.81893000  0.55349000  1
  N  N458  1  0.97180000  0.84728000  0.04921000  1
  N  N459  1  0.42247000  0.79238000  0.44300000  1
  N  N460  1  0.58272000  0.69424000  0.53950000  1
  N  N461  1  0.96720000  0.68337000  0.94730000  1
  N  N462  1  0.47066000  0.65259000  0.45063000  1
  N  N463  1  0.92324000  0.70804000  0.05806000  1
  O  O464  1  0.73289000  0.91607000  0.18687000  1
  O  O465  1  0.82431000  0.94464000  0.12093000  1
  O  O466  1  0.84453000  0.98715000  0.32806000  1
  O  O467  1  0.99088000  0.01549000  0.32339000  1
  O  O468  1  0.63702000  0.98493000  0.82604000  1
  O  O469  1  0.58278000  0.06756000  0.87769000  1
  O  O470  1  0.76463000  0.91982000  0.69381000  1
  O  O471  1  0.66374000  0.83877000  0.67432000  1
  O  O472  1  0.23124000  0.58525000  0.31172000  1
  O  O473  1  0.31919000  0.55211000  0.37889000  1
  O  O474  1  0.34590000  0.51488000  0.17159000  1
  O  O475  1  0.49234000  0.48582000  0.17483000  1
  O  O476  1  0.13959000  0.51478000  0.67427000  1
  O  O477  1  0.08196000  0.43143000  0.62444000  1
  O  O478  1  0.26514000  0.57795000  0.80840000  1
  O  O479  1  0.16452000  0.66019000  0.82709000  1
  O  O480  1  0.76849000  0.08374000  0.18680000  1
  O  O481  1  0.67845000  0.05392000  0.12051000  1
  O  O482  1  0.65438000  0.01264000  0.32819000  1
  O  O483  1  0.50768000  0.98532000  0.32249000  1
  O  O484  1  0.86071000  0.01523000  0.82598000  1
  O  O485  1  0.91329000  0.93265000  0.87853000  1
  O  O486  1  0.73331000  0.07966000  0.69362000  1
  O  O487  1  0.83464000  0.16062000  0.67434000  1
  O  O488  1  0.26876000  0.41501000  0.31209000  1
  O  O489  1  0.17672000  0.44372000  0.37848000  1
  O  O490  1  0.15572000  0.48300000  0.17186000  1
  O  O491  1  0.01042000  0.51471000  0.17450000  1
  O  O492  1  0.36200000  0.48524000  0.67407000  1
  O  O493  1  0.41605000  0.56865000  0.62309000  1
  O  O494  1  0.23592000  0.42137000  0.80805000  1
  O  O495  1  0.33726000  0.34032000  0.82806000  1
  O  O496  1  0.26711000  0.08393000  0.81313000  1
  O  O497  1  0.17569000  0.05535000  0.87908000  1
  O  O498  1  0.15548000  0.01285000  0.67195000  1
  O  O499  1  0.00913000  0.98451000  0.67661000  1
  O  O500  1  0.36298000  0.01507000  0.17396000  1
  O  O501  1  0.41723000  0.93243000  0.12231000  1
  O  O502  1  0.23538000  0.08018000  0.30620000  1
  O  O503  1  0.33626000  0.16123000  0.32568000  1
  O  O504  1  0.76877000  0.41475000  0.68828000  1
  O  O505  1  0.68082000  0.44789000  0.62111000  1
  O  O506  1  0.65410000  0.48512000  0.82842000  1
  O  O507  1  0.50766000  0.51418000  0.82517000  1
  O  O508  1  0.86042000  0.48522000  0.32573000  1
  O  O509  1  0.91804000  0.56857000  0.37556000  1
  O  O510  1  0.73487000  0.42205000  0.19161000  1
  O  O511  1  0.83548000  0.33981000  0.17291000  1
  O  O512  1  0.23152000  0.91626000  0.81320000  1
  O  O513  1  0.32155000  0.94608000  0.87949000  1
  O  O514  1  0.34562000  0.98736000  0.67181000  1
  O  O515  1  0.49233000  0.01469000  0.67751000  1
  O  O516  1  0.13929000  0.98476000  0.17402000  1
  O  O517  1  0.08671000  0.06734000  0.12148000  1
  O  O518  1  0.26670000  0.92034000  0.30638000  1
  O  O519  1  0.16537000  0.83938000  0.32566000  1
  O  O520  1  0.73124000  0.58499000  0.68791000  1
  O  O521  1  0.82328000  0.55628000  0.62152000  1
  O  O522  1  0.84429000  0.51700000  0.82814000  1
  O  O523  1  0.98959000  0.48529000  0.82550000  1
  O  O524  1  0.63800000  0.51476000  0.32593000  1
  O  O525  1  0.58396000  0.43135000  0.37691000  1
  O  O526  1  0.76409000  0.57863000  0.19195000  1
  O  O527  1  0.66274000  0.65968000  0.17195000  1
