# generated using pymatgen
data_Ni4H11C27O14F9
_symmetry_space_group_name_H-M   'P 1'
_cell_length_a   13.99456000
_cell_length_b   14.70292000
_cell_length_c   15.33995000
_cell_angle_alpha   81.33448000
_cell_angle_beta   81.40790000
_cell_angle_gamma   66.05993000
_symmetry_Int_Tables_number   1
_chemical_formula_structural   Ni4H11C27O14F9
_chemical_formula_sum   'Ni8 H22 C54 O28 F18'
_cell_volume   2838.25091093
_cell_formula_units_Z   2
loop_
 _symmetry_equiv_pos_site_id
 _symmetry_equiv_pos_as_xyz
  1  'x, y, z'
loop_
 _atom_site_type_symbol
 _atom_site_label
 _atom_site_symmetry_multiplicity
 _atom_site_fract_x
 _atom_site_fract_y
 _atom_site_fract_z
 _atom_site_occupancy
  C  C1  1  0.94844000  0.39168000  0.12423000  1.0
  C  C2  1  0.94706000  0.37734000  0.60849000  1.0
  C  C5  1  0.97940000  0.38998000  0.42313000  1.0
  C  C7  1  0.98058000  0.29304000  0.09938000  1.0
  C  C9  1  0.92386000  0.22580000  0.13919000  1.0
  C  C11  1  0.88262000  0.39232000  0.46572000  1.0
  C  C13  1  0.87004000  0.37662000  0.55941000  1.0
  C  C15  1  0.83500000  0.45880000  0.13975000  1.0
  C  C17  1  0.78984000  0.43826000  0.41549000  1.0
  C  C19  1  0.77142000  0.36672000  0.60741000  1.0
  C  C21  1  0.73205500  0.96382000  0.42201000  1.0
  C  C23  1  0.70102000  0.82050000  0.39706000  1.0
  C  C24  1  0.72128000  0.87518000  0.45859000  1.0
  C  C27  1  0.66884000  0.14646000  0.06584000  1.0
  C  C29  1  0.62772000  0.03772000  0.87051000  1.0
  C  C31  1  0.65100000  0.07830000  0.01134000  1.0
  C  C33  1  0.66964000  0.87418000  0.54409000  1.0
  C  C35  1  0.62828000  0.10872000  0.92227000  1.0
  C  C37  1  0.62489000  0.94662000  0.91116000  1.0
  C  C39  1  0.64700000  0.98732000  0.05202000  1.0
  C  C41  1  0.62722000  0.92448000  0.00313000  1.0
  C  C43  1  0.53268000  0.53394000  0.10998000  1.0
  C  C45  1  0.02588000  0.42998000  0.12085000  1.0
  C  C47  1  0.46882000  0.75094000  0.38572000  1.0
  C  C48  1  0.59256000  0.84626000  0.05035000  1.0
  C  C49  1  0.16974000  0.32692000  0.92640000  1.0
  C  C50  1  0.11974000  0.38832000  0.61654000  1.0
  C  C51  1  0.24202000  0.53438000  0.91072000  1.0
  C  C52  1  0.45780000  0.43030000  0.58488000  1.0
  C  C53  1  0.57122000  0.21592000  0.89444000  1.0
  C  C54  1  0.52256000  0.14898000  0.56528000  1.0
  C  C55  1  0.13822000  0.30808000  0.02061000  1.0
  C  C56  1  0.12448000  0.38194000  0.07539000  1.0
  C  C57  1  0.07358500  0.25458000  0.04246000  1.0
  C  C58  1  0.03966000  0.38514000  0.56503000  1.0
  C  C59  1  0.05696000  0.38748000  0.47226000  1.0
  C  C60  1  0.59722500  0.96422000  0.57501000  1.0
  C  C61  1  0.58518000  0.05566000  0.52455000  1.0
  C  C62  1  0.65484000  0.05568000  0.44664000  1.0
  C  C63  1  0.64738000  0.15206000  0.38992000  1.0
  C  C64  1  0.44080000  0.56040000  0.05844000  1.0
  C  C65  1  0.34364000  0.56234000  0.09999000  1.0
  C  C66  1  0.25866000  0.58828000  0.04935000  1.0
  C  C67  1  0.27492000  0.59724000  0.95603000  1.0
  C  C68  1  0.36396000  0.61618000  0.91670000  1.0
  C  C69  1  0.44814000  0.59364000  0.96771000  1.0
  C  C70  1  0.38226000  0.63270000  0.81748000  1.0
  C  C71  1  0.43434500  0.53114000  0.53520000  1.0
  C  C72  1  0.43162000  0.61146000  0.57609000  1.0
  C  C73  1  0.39540000  0.70824000  0.53163000  1.0
  C  C74  1  0.38932000  0.71946000  0.43966000  1.0
  C  C75  1  0.36326000  0.64922000  0.40716000  1.0
  C  C76  1  0.39522000  0.55150000  0.45115000  1.0
  C  C77  1  0.29904000  0.67898000  0.32904000  1.0
  F  F1  1  0.99044000  0.12604000  0.13674000  1.0
  F  F3  1  0.88766000  0.24140000  0.22689000  1.0
  F  F5  1  0.84066000  0.24470000  0.09144000  1.0
  F  F7  1  0.79108000  0.31272000  0.68950000  1.0
  F  F9  1  0.74258000  0.09062000  0.12447000  1.0
  F  F11  1  0.73468000  0.31728000  0.55928000  1.0
  F  F13  1  0.69488000  0.46084000  0.61938000  1.0
  F  F14  1  0.70564000  0.21216000  0.01216000  1.0
  F  F17  1  0.70288000  0.19548000  0.42416000  1.0
  F  F19  1  0.45014000  0.68130000  0.79316000  1.0
  F  F21  1  0.68924000  0.13362000  0.30369000  1.0
  F  F22  1  0.54382000  0.21872000  0.38706000  1.0
  F  F23  1  0.57546000  0.20042000  0.11310000  1.0
  F  F24  1  0.42612000  0.54026000  0.78501000  1.0
  F  F25  1  0.28888000  0.69022000  0.78102000  1.0
  F  F26  1  0.24682000  0.61658000  0.32956000  1.0
  F  F27  1  0.22494000  0.77588000  0.33257000  1.0
  F  F28  1  0.36344000  0.67428000  0.25095000  1.0
  H  H1  1  0.99120500  0.39862000  0.35138000  1.0
  H  H3  1  0.93450000  0.37254000  0.68018000  1.0
  H  H5  1  0.78642000  0.96234000  0.36345000  1.0
  H  H7  1  0.74942000  0.73998000  0.20178000  1.0
  H  H9  1  0.00854500  0.49858000  0.14955000  1.0
  H  H11  1  0.67142000  0.80401000  0.57948000  1.0
  H  H13  1  0.61920000  0.05688000  0.80032000  1.0
  H  H15  1  0.61390000  0.89668000  0.87207000  1.0
  H  H17  1  0.52122000  0.59704000  0.93561000  1.0
  H  H19  1  0.65388000  0.96800000  0.12254000  1.0
  H  H21  1  0.54729000  0.61364000  0.28409000  1.0
  H  H22  1  0.31494000  0.46636000  0.70997000  1.0
  H  H23  1  0.44490000  0.17362000  0.77114000  1.0
  H  H24  1  0.08960000  0.18944000  0.00876000  1.0
  H  H25  1  0.18370000  0.41210000  0.07215000  1.0
  H  H26  1  0.12896500  0.39112000  0.43783000  1.0
  H  H27  1  0.55108000  0.96300000  0.63822000  1.0
  H  H28  1  0.18602000  0.58412000  0.08167000  1.0
  H  H29  1  0.33428000  0.54164000  0.17051000  1.0
  H  H30  1  0.39782000  0.76872000  0.56260000  1.0
  H  H31  1  0.38784000  0.49268000  0.42129000  1.0
  H  H32  1  0.46376000  0.59858000  0.63836000  1.0
  Ni  Ni1  1  0.69452000  0.64558000  0.33729000  1.0
  Ni  Ni2  1  0.66162000  0.44392000  0.26609000  1.0
  Ni  Ni5  1  0.64692000  0.65004000  0.14688000  1.0
  Ni  Ni7  1  0.56570000  0.85648000  0.24573000  1.0
  Ni  Ni8  1  0.34400000  0.29922000  0.65365000  1.0
  Ni  Ni9  1  0.36528000  0.34286000  0.83987000  1.0
  Ni  Ni10  1  0.14162000  0.48632000  0.77035000  1.0
  Ni  Ni11  1  0.57478000  0.24654000  0.69736000  1.0
  O  O1  1  0.80428000  0.55728000  0.12647000  1.0
  O  O3  1  0.79038000  0.40136000  0.34126000  1.0
  O  O5  1  0.76424000  0.42014000  0.15510000  1.0
  O  O7  1  0.75258000  0.72120000  0.40039000  1.0
  O  O9  1  0.72198000  0.52788000  0.43293000  1.0
  O  O11  1  0.68322000  0.73104000  0.22361000  1.0
  O  O12  1  0.64975000  0.75124000  0.03957000  1.0
  O  O15  1  0.62358500  0.58627000  0.26835000  1.0
  O  O16  1  0.60672000  0.56650000  0.07639000  1.0
  O  O19  1  0.60694000  0.25912000  0.82241000  1.0
  O  O21  1  0.54158000  0.47624000  0.18720000  1.0
  O  O23  1  0.52102000  0.86888000  0.11921000  1.0
  O  O24  1  0.45496000  0.80006000  0.30618000  1.0
  O  O25  1  0.56072000  0.71678000  0.41404000  1.0
  O  O26  1  0.60686000  0.86562000  0.36590000  1.0
  O  O27  1  0.28888000  0.41366000  0.73375000  1.0
  O  O28  1  0.21758000  0.36148000  0.58011000  1.0
  O  O29  1  0.09702000  0.39830000  0.70251000  1.0
  O  O30  1  0.41518000  0.37424000  0.56260000  1.0
  O  O31  1  0.57076000  0.20652000  0.57695000  1.0
  O  O32  1  0.10546000  0.40744000  0.88298000  1.0
  O  O33  1  0.28554000  0.43846000  0.93165000  1.0
  O  O34  1  0.43972000  0.24202000  0.74865000  1.0
  O  O35  1  0.41804000  0.18224000  0.57787000  1.0
  O  O36  1  0.47290000  0.25922000  0.92656000  1.0
  O  O37  1  0.51674000  0.39774000  0.65229000  1.0
  O  O38  1  0.26492000  0.27405000  0.89062000  1.0
  O  O39  1  0.17712000  0.57250000  0.84651000  1.0
