# generated using pymatgen
data_H36C50N5O2
_symmetry_space_group_name_H-M   'P 1'
_cell_length_a   9.99760000
_cell_length_b   38.34720000
_cell_length_c   38.34920000
_cell_angle_alpha   89.93110000
_cell_angle_beta   90.00000000
_cell_angle_gamma   90.00000000
_symmetry_Int_Tables_number   1
_chemical_formula_structural   H36C50N5O2
_chemical_formula_sum   'H72 C100 N10 O4'
_cell_volume   14702.30438936
_cell_formula_units_Z   2
loop_
 _symmetry_equiv_pos_site_id
 _symmetry_equiv_pos_as_xyz
  1  'x, y, z'
loop_
 _atom_site_type_symbol
 _atom_site_label
 _atom_site_symmetry_multiplicity
 _atom_site_fract_x
 _atom_site_fract_y
 _atom_site_fract_z
 _atom_site_occupancy
  C  1  1  0.98415600  0.08761000  0.92781300  1
  C  2  1  0.98463600  0.06115500  0.90344500  1
  C  3  1  0.98709700  0.02929300  0.92117700  1
  C  5  1  0.98705700  0.07254000  0.96100400  1
  C  6  1  0.98678800  0.09139700  0.99292800  1
  C  7  1  0.98797900  0.07606300  0.02662900  1
  C  9  1  0.98892800  0.03648000  0.06956400  1
  C  10  1  0.99029900  0.06954600  0.08481000  1
  C  11  1  0.98967700  0.09395000  0.05834000  1
  C  12  1  0.98932900  0.00412800  0.08758300  1
  C  13  1  0.98931300  0.97077100  0.07141600  1
  C  15  1  0.98930900  0.92754300  0.03159500  1
  C  16  1  0.99138000  0.91247700  0.06480300  1
  C  17  1  0.99114900  0.93892900  0.08917000  1
  C  18  1  0.98911000  0.90868500  0.99966600  1
  C  19  1  0.98853900  0.92398700  0.96595800  1
  C  21  1  0.98783700  0.96356100  0.92300500  1
  C  22  1  0.98611700  0.93048000  0.90778600  1
  C  23  1  0.98684700  0.90607900  0.93426900  1
  C  24  1  0.98682800  0.99592300  0.90499400  1
  C  25  1  0.98224700  0.99472000  0.86791400  1
  C  26  1  0.10062400  0.99048500  0.84830000  1
  C  27  1  0.09525400  0.98881500  0.81167800  1
  C  28  1  0.97187900  0.99165500  0.79376300  1
  C  29  1  0.85383700  0.99610700  0.81367000  1
  C  30  1  0.85871500  0.99745000  0.85029300  1
  C  31  1  0.96616200  0.98977400  0.75667900  1
  C  32  1  0.89276600  0.01459600  0.73716600  1
  C  33  1  0.88552300  0.01244200  0.70060200  1
  C  34  1  0.95026900  0.98521000  0.68242600  1
  C  35  1  0.02363500  0.96037300  0.70184600  1
  C  36  1  0.03211800  0.96274300  0.73838900  1
  C  37  1  0.99161400  0.87162500  0.00158600  1
  C  38  1  0.11468900  0.85362700  0.00116900  1
  C  39  1  0.11770800  0.81710100  0.00435000  1
  C  40  1  0.99825900  0.79754600  0.00808700  1
  C  41  1  0.87525000  0.81591000  0.00807800  1
  C  42  1  0.87176500  0.85246200  0.00492100  1
  C  43  1  0.00218200  0.76053400  0.01243200  1
  C  44  1  0.09709400  0.74478800  0.03489900  1
  C  45  1  0.10198500  0.70839600  0.03922000  1
  C  46  1  0.01153400  0.68646500  0.02135300  1
  C  47  1  0.91540000  0.70202000  0.99925000  1
  C  48  1  0.91118000  0.73844000  0.99475500  1
  C  49  1  0.99199800  0.00538000  0.12466400  1
  C  50  1  0.87209000  0.00809200  0.14388900  1
  C  51  1  0.87553200  0.01048600  0.18048700  1
  C  52  1  0.99856000  0.01034000  0.19883900  1
  C  53  1  0.11808800  0.00723700  0.17921300  1
  C  54  1  0.11511400  0.00482700  0.14263600  1
  C  55  1  0.00238200  0.01390500  0.23592300  1
  C  56  1  0.09684400  0.03615700  0.25209200  1
  C  57  1  0.10149500  0.03975300  0.28855300  1
  C  58  1  0.01123500  0.02134700  0.31013200  1
  C  59  1  0.91561100  0.99943000  0.29416600  1
  C  60  1  0.91164900  0.99565700  0.25767400  1
  C  61  1  0.98215600  0.12846300  0.99114600  1
  C  62  1  0.85881700  0.14610700  0.99426700  1
  C  63  1  0.10042400  0.14807100  0.98663700  1
  C  64  1  0.09517300  0.18471300  0.98518400  1
  C  65  1  0.97205400  0.20265700  0.98854600  1
  C  66  1  0.85406600  0.18274100  0.99310800  1
  C  67  1  0.96664300  0.23978800  0.98733300  1
  C  68  1  0.89405500  0.25883300  0.01263300  1
  C  69  1  0.88727800  0.29544300  0.01121000  1
  C  70  1  0.95176800  0.31416100  0.98426100  1
  C  71  1  0.02436600  0.29521600  0.95895300  1
  C  72  1  0.03237900  0.25861400  0.96059200  1
  C  115  1  0.01579600  0.64793800  0.02591500  1
  C  116  1  0.93931700  0.98287700  0.64380700  1
  C  117  1  0.94097700  0.35282900  0.98265400  1
  C  118  1  0.01502500  0.02522000  0.34872300  1
  C  127  1  0.04025200  0.59269000  0.99524700  1
  C  128  1  0.15911900  0.57572700  0.00525900  1
  C  129  1  0.16535100  0.53900700  0.00892200  1
  C  130  1  0.04934500  0.51842900  0.00200000  1
  C  131  1  0.92710200  0.53605800  0.99405700  1
  C  132  1  0.92460200  0.57263900  0.98989300  1
  C  134  1  0.04536200  0.48087000  0.00533600  1
  C  135  1  0.15527700  0.45918100  0.99659800  1
  C  136  1  0.14684500  0.42266200  0.99890000  1
  C  137  1  0.02651700  0.40648600  0.00881800  1
  C  138  1  0.91411000  0.42748100  0.01608600  1
  C  139  1  0.92207100  0.46422200  0.01395600  1
  C  144  1  0.79977100  0.48583700  0.01868400  1
  C  145  1  0.79949300  0.51602500  0.99177200  1
  C  157  1  0.03977000  0.99374500  0.40352800  1
  C  158  1  0.15879000  0.00347100  0.42056000  1
  C  159  1  0.16491100  0.00696800  0.45728400  1
  C  160  1  0.04863300  0.00014600  0.47780700  1
  C  161  1  0.92643200  0.99231000  0.46012800  1
  C  162  1  0.92399200  0.98836400  0.42353500  1
  C  164  1  0.04431200  0.00363800  0.51533900  1
  C  165  1  0.15397800  0.99501500  0.53717200  1
  C  166  1  0.14541500  0.99774700  0.57365200  1
  C  167  1  0.02522600  0.00803200  0.58964300  1
  C  168  1  0.91296900  0.01513000  0.56852100  1
  C  169  1  0.92103700  0.01254900  0.53182200  1
  C  174  1  0.79887400  0.01717500  0.51011300  1
  C  175  1  0.79871100  0.99011100  0.48012600  1
  H  73  1  0.07207900  0.30793900  0.93906200  1
  H  74  1  0.08411200  0.24576300  0.94149300  1
  H  75  1  0.83339100  0.30837200  0.02983900  1
  H  76  1  0.84646400  0.24621400  0.03263100  1
  H  77  1  0.76292500  0.19473400  0.99509300  1
  H  78  1  0.77176600  0.13241400  0.99748600  1
  H  79  1  0.18278600  0.19822600  0.98234700  1
  H  80  1  0.19101800  0.13581500  0.98450000  1
  H  81  1  0.98146600  0.11357300  0.92179600  1
  H  82  1  0.98251800  0.06503500  0.87707900  1
  H  83  1  0.99201000  0.02065900  0.97392200  1
  H  84  1  0.98570600  0.97941700  0.01865900  1
  H  85  1  0.99091900  0.12033500  0.06204500  1
  H  86  1  0.99186800  0.07538800  0.11080400  1
  H  87  1  0.78172300  0.00883800  0.13135100  1
  H  88  1  0.78696100  0.01338900  0.19353500  1
  H  89  1  0.20333900  0.00290000  0.12922000  1
  H  90  1  0.20907600  0.00647500  0.19141000  1
  H  91  1  0.99262800  0.93507000  0.11554600  1
  H  92  1  0.99306400  0.88651200  0.07083700  1
  H  93  1  0.98404700  0.92462900  0.88179900  1
  H  94  1  0.98531200  0.87968700  0.93060400  1
  H  95  1  0.20288200  0.86699900  0.99883900  1
  H  96  1  0.20866900  0.80488500  0.00369700  1
  H  97  1  0.78144000  0.86502300  0.00558100  1
  H  98  1  0.78674900  0.80292100  0.01138200  1
  H  99  1  0.84202200  0.74862400  0.97791300  1
  H  100  1  0.84842300  0.68683500  0.98597600  1
  H  101  1  0.17187200  0.69806400  0.05575700  1
  H  102  1  0.16282100  0.75974000  0.04884300  1
  H  103  1  0.77154500  0.00033700  0.86400200  1
  H  104  1  0.76253300  0.99764600  0.80169600  1
  H  105  1  0.08440200  0.94396800  0.75160800  1
  H  106  1  0.07161000  0.94030800  0.68951200  1
  H  107  1  0.83121000  0.03076100  0.68731000  1
  H  108  1  0.84491300  0.03476200  0.74939700  1
  H  109  1  0.18284500  0.98598600  0.79815900  1
  H  110  1  0.19129600  0.98848100  0.86054600  1
  H  111  1  0.16232000  0.05049900  0.23741300  1
  H  112  1  0.17097400  0.05618400  0.29919600  1
  H  113  1  0.84280400  0.97894600  0.24717500  1
  H  114  1  0.84874500  0.98579000  0.30909000  1
  H  119  1  0.09659500  0.64047500  0.04370800  1
  H  120  1  0.92154400  0.63985900  0.03792800  1
  H  121  1  0.83395200  0.98510800  0.63640400  1
  H  122  1  0.97398300  0.95731400  0.63490700  1
  H  123  1  0.92054200  0.03701700  0.35690500  1
  H  124  1  0.09551500  0.04295500  0.35650900  1
  H  125  1  0.97601400  0.36226100  0.95729700  1
  H  126  1  0.83558200  0.36018600  0.98491800  1
  H  133  1  0.83684100  0.58505500  0.98395200  1
  H  140  1  0.24176400  0.46948700  0.98694600  1
  H  141  1  0.22804400  0.40781600  0.99232200  1
  H  142  1  0.82566000  0.41576500  0.02263500  1
  H  143  1  0.24210900  0.59044200  0.01048000  1
  H  146  1  0.79993300  0.49654700  0.04509900  1
  H  147  1  0.70832500  0.47050600  0.01546100  1
  H  148  1  0.71251300  0.53257900  0.99678300  1
  H  149  1  0.78981100  0.50542700  0.96542800  1
  H  154  1  0.11386000  0.63855300  0.97874000  1
  H  156  1  0.98908900  0.36240500  0.03475400  1
  H  163  1  0.83615000  0.98263700  0.41107200  1
  H  170  1  0.24033000  0.98513600  0.52703000  1
  H  171  1  0.22645400  0.99127100  0.58861700  1
  H  172  1  0.82460800  0.02194200  0.58011600  1
  H  173  1  0.24186000  0.00873900  0.40587800  1
  H  176  1  0.79910300  0.04353900  0.49921500  1
  H  177  1  0.70736100  0.01402200  0.52543600  1
  H  178  1  0.71176000  0.99501100  0.46352000  1
  H  179  1  0.78907000  0.96382100  0.49092700  1
  H  184  1  0.11335800  0.97792600  0.35745200  1
  H  186  1  0.98832800  0.03474600  0.63321800  1
  N  4  1  0.98937800  0.03762800  0.95551400  1
  N  8  1  0.98776900  0.04177400  0.03473800  1
  N  14  1  0.98782800  0.96245200  0.03707600  1
  N  20  1  0.98909700  0.95827400  0.95783400  1
  N  150  1  0.28419900  0.52364700  0.02197900  1
  N  153  1  0.03196700  0.62941800  0.99214000  1
  N  155  1  0.02210500  0.36964600  0.01043700  1
  N  180  1  0.28391000  0.01986400  0.47267200  1
  N  183  1  0.03138000  0.99114400  0.36676900  1
  N  185  1  0.02087500  0.01027000  0.62644200  1
  O  151  1  0.38306300  0.52970000  0.00260200  1
  O  152  1  0.31095600  0.53395600  0.05229000  1
  O  181  1  0.38247300  0.00038600  0.46665400  1
  O  182  1  0.31121800  0.05017900  0.46239300  1
