# generated using pymatgen
data_ZnH8C14(N4O3)2
_symmetry_space_group_name_H-M   'P 1'
_cell_length_a   9.42892000
_cell_length_b   14.79447000
_cell_length_c   18.58796000
_cell_angle_alpha   89.96043000
_cell_angle_beta   86.90385000
_cell_angle_gamma   89.64111000
_symmetry_Int_Tables_number   1
_chemical_formula_structural   ZnH8C14(N4O3)2
_chemical_formula_sum   'Zn4 H32 C56 N32 O24'
_cell_volume   2589.10785815
_cell_formula_units_Z   4
loop_
 _symmetry_equiv_pos_site_id
 _symmetry_equiv_pos_as_xyz
  1  'x, y, z'
loop_
 _atom_site_type_symbol
 _atom_site_label
 _atom_site_symmetry_multiplicity
 _atom_site_fract_x
 _atom_site_fract_y
 _atom_site_fract_z
 _atom_site_occupancy
  Zn  Zn0  1  0.81151000  0.00595000  0.24177000  1
  Zn  Zn1  1  0.31171000  0.49367000  0.24200000  1
  Zn  Zn2  1  0.68829000  0.50633000  0.75800000  1
  Zn  Zn3  1  0.18848000  0.99405000  0.75823000  1
  H  H4  1  0.15436000  0.37983000  0.04658000  1
  H  H5  1  0.37312000  0.79895000  0.60128000  1
  H  H6  1  0.04078000  0.31832000  0.24729000  1
  H  H7  1  0.89233000  0.28218000  0.76619000  1
  H  H8  1  0.34465000  0.87945000  0.95646000  1
  H  H9  1  0.15539000  0.70990000  0.08337000  1
  H  H10  1  0.41981000  0.59752000  0.09161000  1
  H  H11  1  0.84564000  0.62017000  0.95342000  1
  H  H12  1  0.95922000  0.68168000  0.75271000  1
  H  H13  1  0.42742000  0.39525000  0.38659000  1
  H  H14  1  0.67625000  0.88555000  0.45482000  1
  H  H15  1  0.84461000  0.29010000  0.91663000  1
  H  H16  1  0.87606000  0.70546000  0.59882000  1
  H  H17  1  0.39499000  0.21798000  0.76756000  1
  H  H18  1  0.45557000  0.82003000  0.75536000  1
  H  H19  1  0.65015000  0.78330000  0.07782000  1
  H  H20  1  0.07672000  0.89699000  0.61163000  1
  H  H21  1  0.58018000  0.40248000  0.90839000  1
  H  H22  1  0.10766000  0.71782000  0.23381000  1
  H  H23  1  0.65534000  0.12055000  0.04354000  1
  H  H24  1  0.12393000  0.29454000  0.40118000  1
  H  H25  1  0.34984000  0.21670000  0.92218000  1
  H  H26  1  0.82404000  0.38720000  0.54614000  1
  H  H27  1  0.32375000  0.11445000  0.54518000  1
  H  H28  1  0.62688000  0.20105000  0.39872000  1
  H  H29  1  0.07518000  0.09739000  0.90919000  1
  H  H30  1  0.92482000  0.90261000  0.09081000  1
  H  H31  1  0.92328000  0.10301000  0.38837000  1
  H  H32  1  0.57257000  0.60475000  0.61341000  1
  H  H33  1  0.54442000  0.17997000  0.24464000  1
  H  H34  1  0.17596000  0.61280000  0.45386000  1
  H  H35  1  0.60500000  0.78202000  0.23243000  1
  C  C36  1  0.45631000  0.62764000  0.14024000  1
  C  C37  1  0.56856000  0.98959000  0.06506000  1
  C  C38  1  0.43582000  0.99266000  0.57009000  1
  C  C39  1  0.50658000  0.24582000  0.26291000  1
  C  C40  1  0.03908000  0.12741000  0.86031000  1
  C  C41  1  0.40099000  0.06443000  0.52493000  1
  C  C42  1  0.08599000  0.43189000  0.02546000  1
  C  C43  1  0.54369000  0.37236000  0.85976000  1
  C  C44  1  0.51887000  0.07967000  0.95937000  1
  C  C45  1  0.94177000  0.14237000  0.33966000  1
  C  C46  1  0.03515000  0.57289000  0.54404000  1
  C  C47  1  0.55278000  0.72186000  0.21421000  1
  C  C48  1  0.13751000  0.52070000  0.13550000  1
  C  C49  1  0.41786000  0.15161000  0.41099000  1
  C  C50  1  0.05823000  0.85763000  0.66034000  1
  C  C51  1  0.94442000  0.22194000  0.78517000  1
  C  C52  1  0.99657000  0.74754000  0.73489000  1
  C  C53  1  0.56417000  0.00734000  0.42991000  1
  C  C54  1  0.96485000  0.42711000  0.45596000  1
  C  C55  1  0.55459000  0.64390000  0.66226000  1
  C  C56  1  0.98089000  0.58153000  0.03902000  1
  C  C57  1  0.43144000  0.01041000  0.93494000  1
  C  C58  1  0.05571000  0.33242000  0.92079000  1
  C  C59  1  0.06741000  0.51196000  0.06514000  1
  C  C60  1  0.86248000  0.47930000  0.86450000  1
  C  C61  1  0.63079000  0.01218000  0.35465000  1
  C  C62  1  0.91670000  0.34941000  0.41159000  1
  C  C63  1  0.06423000  0.49189000  0.42992000  1
  C  C64  1  0.91400000  0.56811000  0.97454000  1
  C  C65  1  0.86916000  0.51298000  0.64532000  1
  C  C66  1  0.96092000  0.87259000  0.13969000  1
  C  C67  1  0.05557000  0.77806000  0.21483000  1
  C  C68  1  0.49342000  0.75418000  0.73709000  1
  C  C69  1  0.64023000  0.98110000  0.13499000  1
  C  C70  1  0.09870000  0.56368000  0.47468000  1
  C  C71  1  0.53551000  0.92705000  0.54448000  1
  C  C72  1  0.01911000  0.41847000  0.96098000  1
  C  C73  1  0.13084000  0.48702000  0.35468000  1
  C  C74  1  0.58214000  0.84839000  0.58901000  1
  C  C75  1  0.36921000  0.98781000  0.64535000  1
  C  C76  1  0.93259000  0.48804000  0.93486000  1
  C  C77  1  0.35977000  0.01890000  0.86501000  1
  C  C78  1  0.08330000  0.65059000  0.58840000  1
  C  C79  1  0.48112000  0.92033000  0.04063000  1
  C  C80  1  0.00343000  0.25246000  0.26511000  1
  C  C81  1  0.44296000  0.83749000  0.08391000  1
  C  C82  1  0.90130000  0.43632000  0.52531000  1
  C  C83  1  0.94428000  0.66758000  0.07921000  1
  C  C84  1  0.44721000  0.27814000  0.78579000  1
  C  C85  1  0.93576000  0.50811000  0.57008000  1
  C  C86  1  0.59901000  0.93557000  0.47507000  1
  C  C87  1  0.41320000  0.93178000  0.97621000  1
  C  C88  1  0.55704000  0.16251000  0.91609000  1
  C  C89  1  0.58680000  0.06822000  0.02379000  1
  C  C90  1  0.44541000  0.35610000  0.33774000  1
  C  C91  1  0.46449000  0.07295000  0.45552000  1
  N  N92  1  0.99134000  0.15233000  0.74686000  1
  N  N93  1  0.47630000  0.29170000  0.85703000  1
  N  N94  1  0.97193000  0.20864000  0.85670000  1
  N  N95  1  0.05210000  0.73110000  0.08667000  1
  N  N96  1  0.00865000  0.84767000  0.25314000  1
  N  N97  1  0.91993000  0.11677000  0.27313000  1
  N  N98  1  0.04061000  0.81428000  0.77437000  1
  N  N99  1  0.08006000  0.88323000  0.72687000  1
  N  N100  1  0.46118000  0.31287000  0.22372000  1
  N  N101  1  0.53882000  0.68712000  0.77628000  1
  N  N102  1  0.02807000  0.79136000  0.14330000  1
  N  N103  1  0.47772000  0.78339000  0.60583000  1
  N  N104  1  0.98123000  0.71817000  0.60409000  1
  N  N105  1  0.94790000  0.26890000  0.91333000  1
  N  N106  1  0.99492000  0.22770000  0.33702000  1
  N  N107  1  0.94788000  0.90672000  0.20542000  1
  N  N108  1  0.45514000  0.23167000  0.91393000  1
  N  N109  1  0.54486000  0.76833000  0.08606000  1
  N  N110  1  0.00507000  0.77230000  0.66298000  1
  N  N111  1  0.95938000  0.18572000  0.22563000  1
  N  N112  1  0.50673000  0.65284000  0.25318000  1
  N  N113  1  0.42186000  0.38193000  0.27142000  1
  N  N114  1  0.50064000  0.72940000  0.66509000  1
  N  N115  1  0.05211000  0.09328000  0.79458000  1
  N  N116  1  0.44498000  0.59392000  0.20613000  1
  N  N117  1  0.52228000  0.21660000  0.39417000  1
  N  N118  1  0.55502000  0.40608000  0.79387000  1
  N  N119  1  0.52370000  0.70830000  0.14297000  1
  N  N120  1  0.57813000  0.61806000  0.72858000  1
  N  N121  1  0.49936000  0.27060000  0.33491000  1
  N  N122  1  0.01876000  0.28183000  0.39591000  1
  N  N123  1  0.49327000  0.34716000  0.74681000  1
  O  O124  1  0.89298000  0.41324000  0.82430000  1
  O  O125  1  0.72863000  0.04433000  0.14926000  1
  O  O126  1  0.29359000  0.16385000  0.39651000  1
  O  O127  1  0.70641000  0.83615000  0.60349000  1
  O  O128  1  0.10701000  0.58676000  0.17570000  1
  O  O129  1  0.17948000  0.31372000  0.90197000  1
  O  O130  1  0.77058000  0.54128000  0.85085000  1
  O  O131  1  0.74395000  0.96403000  0.34152000  1
  O  O132  1  0.38565000  0.08619000  0.82542000  1
  O  O133  1  0.61434000  0.91381000  0.17458000  1
  O  O134  1  0.92166000  0.56402000  0.69063000  1
  O  O135  1  0.57766000  0.06348000  0.30936000  1
  O  O136  1  0.22941000  0.45872000  0.14915000  1
  O  O137  1  0.07834000  0.43598000  0.30936000  1
  O  O138  1  0.25605000  0.03597000  0.65848000  1
  O  O139  1  0.24306000  0.53535000  0.34150000  1
  O  O140  1  0.27137000  0.95567000  0.85074000  1
  O  O141  1  0.20745000  0.65959000  0.60377000  1
  O  O142  1  0.42233000  0.93651000  0.69064000  1
  O  O143  1  0.79255000  0.34041000  0.39623000  1
  O  O144  1  0.82052000  0.68628000  0.09803000  1
  O  O145  1  0.67883000  0.17344000  0.89082000  1
  O  O146  1  0.32116000  0.82656000  0.10918000  1
  O  O147  1  0.75693000  0.46465000  0.65850000  1
