# generated using pymatgen
data_H8C13N2
_symmetry_space_group_name_H-M   'P 1'
_cell_length_a   24.27960000
_cell_length_b   24.27960000
_cell_length_c   24.27960000
_cell_angle_alpha   90.00000000
_cell_angle_beta   90.00000000
_cell_angle_gamma   90.00000000
_symmetry_Int_Tables_number   1
_chemical_formula_structural   H8C13N2
_chemical_formula_sum   'H96 C156 N24'
_cell_volume   14312.79934157
_cell_formula_units_Z   12
loop_
 _symmetry_equiv_pos_site_id
 _symmetry_equiv_pos_as_xyz
  1  'x, y, z'
loop_
 _atom_site_type_symbol
 _atom_site_label
 _atom_site_symmetry_multiplicity
 _atom_site_fract_x
 _atom_site_fract_y
 _atom_site_fract_z
 _atom_site_occupancy
  C  1  1  0.00496200  0.15535500  0.42139800  1
  C  2  1  0.04869700  0.17088600  0.38556900  1
  C  3  1  0.03850400  0.19534800  0.33349500  1
  C  4  1  0.98299300  0.20282300  0.31723900  1
  C  5  1  0.93913500  0.18097000  0.34862700  1
  C  6  1  0.95100100  0.15686000  0.39993900  1
  C  10  1  0.08070000  0.21186300  0.29689500  1
  C  11  1  0.88440600  0.17967700  0.32995000  1
  C  12  1  0.01529600  0.14389700  0.47769400  1
  C  16  1  0.98576400  0.78990500  0.42138600  1
  C  17  1  0.94203800  0.77438400  0.38554300  1
  C  18  1  0.95225900  0.74984000  0.33350900  1
  C  19  1  0.00777500  0.74236500  0.31726900  1
  C  20  1  0.05162100  0.76423700  0.34865800  1
  C  21  1  0.03973600  0.78836400  0.39995600  1
  C  25  1  0.91007100  0.73327700  0.29692200  1
  C  26  1  0.10636400  0.76549600  0.33002700  1
  C  27  1  0.97541600  0.80139800  0.47766800  1
  C  31  1  0.98566600  0.15522300  0.57678400  1
  C  32  1  0.94195400  0.17081300  0.61262400  1
  C  33  1  0.95219300  0.19540200  0.66462700  1
  C  34  1  0.00771300  0.20285100  0.68085600  1
  C  35  1  0.05153900  0.18088400  0.64950500  1
  C  36  1  0.03963400  0.15670100  0.59823600  1
  C  40  1  0.91002600  0.21209100  0.70118000  1
  C  41  1  0.10627400  0.17958200  0.66816700  1
  C  42  1  0.97525800  0.14366200  0.52050800  1
  C  46  1  0.00501100  0.79010000  0.57677100  1
  C  47  1  0.04871800  0.77454200  0.61263000  1
  C  48  1  0.03848300  0.74994300  0.66463100  1
  C  49  1  0.98296400  0.74241800  0.68082800  1
  C  50  1  0.93912700  0.76432000  0.64944300  1
  C  51  1  0.95103200  0.78852900  0.59819000  1
  C  55  1  0.08066400  0.73336200  0.70121500  1
  C  56  1  0.88437500  0.76554500  0.66805800  1
  C  57  1  0.01544000  0.80164500  0.52049600  1
  C  61  1  0.41772200  0.98232800  0.18183800  1
  C  62  1  0.38192900  0.02607400  0.19743100  1
  C  63  1  0.32987300  0.01588400  0.22194700  1
  C  64  1  0.31358700  0.96036900  0.22937500  1
  C  65  1  0.34488000  0.91654000  0.20734100  1
  C  66  1  0.39618700  0.92839300  0.18322200  1
  C  70  1  0.29336500  0.05811000  0.23864300  1
  C  71  1  0.32618900  0.86181900  0.20601100  1
  C  72  1  0.47403500  0.99264300  0.17042200  1
  C  76  1  0.41764800  0.96279900  0.81627700  1
  C  77  1  0.38186200  0.91904000  0.80069600  1
  C  78  1  0.32980600  0.92924800  0.77618400  1
  C  79  1  0.31347100  0.98476400  0.76888100  1
  C  80  1  0.34473100  0.02857400  0.79099800  1
  C  81  1  0.39606000  0.01671500  0.81506200  1
  C  85  1  0.29334700  0.88704200  0.75933600  1
  C  86  1  0.32602500  0.08328800  0.79236600  1
  C  87  1  0.47398400  0.95250600  0.82760900  1
  C  91  1  0.57311600  0.96273700  0.18185100  1
  C  92  1  0.60889300  0.91897800  0.19744800  1
  C  93  1  0.66095300  0.92919000  0.22194900  1
  C  94  1  0.67727800  0.98470400  0.22929700  1
  C  95  1  0.64604100  0.02850400  0.20711200  1
  C  96  1  0.59471400  0.01664600  0.18304100  1
  C  100  1  0.69741800  0.88698400  0.23878700  1
  C  101  1  0.66474800  0.08322100  0.20571900  1
  C  102  1  0.51676600  0.95251000  0.17053700  1
  C  106  1  0.57304000  0.98240000  0.81610400  1
  C  107  1  0.60879800  0.02613900  0.80042600  1
  C  108  1  0.66090600  0.01594200  0.77602500  1
  C  109  1  0.67721400  0.96042600  0.76866100  1
  C  110  1  0.64595100  0.91662200  0.79080700  1
  C  111  1  0.59463200  0.92848600  0.81489700  1
  C  115  1  0.69740600  0.05814600  0.75926000  1
  C  116  1  0.66467400  0.86191400  0.79224400  1
  C  117  1  0.51670900  0.99265900  0.82745300  1
  C  121  1  0.17807400  0.39493500  0.00871300  1
  C  122  1  0.19358500  0.35908100  0.05243400  1
  C  123  1  0.21805000  0.30700900  0.04222700  1
  C  124  1  0.22553700  0.29077800  0.98671200  1
  C  125  1  0.20371700  0.32219800  0.94285800  1
  C  126  1  0.17961100  0.37350600  0.95473800  1
  C  130  1  0.23458200  0.27040600  0.08441500  1
  C  131  1  0.20247000  0.30356600  0.88811300  1
  C  132  1  0.16662300  0.45122800  0.01906800  1
  C  136  1  0.81265000  0.39492700  0.98939300  1
  C  137  1  0.79717000  0.35906500  0.94566500  1
  C  138  1  0.77261900  0.30703400  0.95587700  1
  C  139  1  0.76510600  0.29080600  0.01139000  1
  C  140  1  0.78693700  0.32221200  0.05524700  1
  C  141  1  0.81105400  0.37351700  0.04337100  1
  C  145  1  0.75606800  0.27043900  0.91369000  1
  C  146  1  0.78817700  0.30357800  0.10998900  1
  C  147  1  0.82415600  0.45120700  0.97903500  1
  C  151  1  0.17798000  0.55032900  0.98947600  1
  C  152  1  0.19346200  0.58621400  0.94576000  1
  C  153  1  0.21807100  0.63821200  0.95598200  1
  C  154  1  0.22564000  0.65440200  0.01149700  1
  C  155  1  0.20378400  0.62300800  0.05534600  1
  C  156  1  0.17959800  0.57173600  0.04345900  1
  C  160  1  0.23461200  0.67481200  0.91379700  1
  C  161  1  0.20257200  0.64162800  0.11009600  1
  C  162  1  0.16637700  0.49406400  0.97905500  1
  C  166  1  0.81285800  0.55032100  0.00861500  1
  C  167  1  0.79735600  0.58619700  0.05233100  1
  C  168  1  0.77275000  0.63819900  0.04211100  1
  C  169  1  0.76518600  0.65439200  0.98659600  1
  C  170  1  0.78703800  0.62299500  0.94274500  1
  C  171  1  0.81122100  0.57172400  0.95463100  1
  C  175  1  0.75619100  0.67479000  0.08429900  1
  C  176  1  0.78823700  0.64161200  0.88799300  1
  C  177  1  0.82440900  0.49404800  0.01904700  1
  C  181  1  0.21834300  0.23502200  0.17845400  1
  C  182  1  0.17735700  0.23625900  0.21973000  1
  C  183  1  0.17471300  0.19553300  0.26147800  1
  C  184  1  0.21607200  0.15463900  0.26280700  1
  C  185  1  0.25787400  0.15202400  0.22213600  1
  C  186  1  0.25904300  0.19324400  0.18109200  1
  C  193  1  0.77257300  0.71024100  0.17829700  1
  C  194  1  0.81351700  0.70895400  0.21960400  1
  C  195  1  0.81604800  0.74951700  0.26151000  1
  C  196  1  0.77473800  0.79046500  0.26277900  1
  C  197  1  0.73293700  0.79311700  0.22210300  1
  C  198  1  0.73178000  0.75192200  0.18102800  1
  C  205  1  0.77236800  0.23503100  0.81966400  1
  C  206  1  0.81336500  0.23631100  0.77840100  1
  C  207  1  0.81605200  0.19559500  0.73664600  1
  C  208  1  0.77472100  0.15467500  0.73529300  1
  C  209  1  0.73290000  0.15202300  0.77594200  1
  C  210  1  0.73170000  0.19322600  0.81700800  1
  C  217  1  0.21819300  0.71029100  0.81981500  1
  C  218  1  0.17723300  0.70902000  0.77852300  1
  C  219  1  0.17469200  0.74959500  0.73663000  1
  C  220  1  0.21600700  0.79053900  0.73535700  1
  C  221  1  0.25782000  0.79317500  0.77601700  1
  C  222  1  0.25898900  0.75197000  0.81708200  1
  C  229  1  0.76870400  0.71700000  0.82463600  1
  C  230  1  0.81268700  0.70925300  0.78733900  1
  C  231  1  0.82092500  0.74591900  0.74332400  1
  C  232  1  0.78383400  0.79011500  0.73579800  1
  C  233  1  0.73984600  0.79838500  0.77247900  1
  C  234  1  0.73217300  0.76114600  0.81652200  1
  C  241  1  0.22201100  0.22823900  0.82471000  1
  C  242  1  0.17790500  0.23583100  0.78753200  1
  C  243  1  0.16965600  0.19917400  0.74351800  1
  C  244  1  0.20676000  0.15499000  0.73600400  1
  C  245  1  0.25082300  0.14678700  0.77261700  1
  C  246  1  0.25852900  0.18407600  0.81661400  1
  C  253  1  0.22208600  0.71700200  0.17347000  1
  C  254  1  0.17806900  0.70926700  0.21072800  1
  C  255  1  0.16982000  0.74591500  0.25475500  1
  C  256  1  0.20692500  0.79009000  0.26232600  1
  C  257  1  0.25095000  0.79834800  0.22568600  1
  C  258  1  0.25863600  0.76112400  0.18163200  1
  C  265  1  0.76868500  0.22822400  0.17337000  1
  C  266  1  0.81279000  0.23583800  0.21054200  1
  C  267  1  0.82105200  0.19919300  0.25456200  1
  C  268  1  0.78397200  0.15499000  0.26208300  1
  C  269  1  0.73991800  0.14675500  0.22546300  1
  C  270  1  0.73219400  0.18403800  0.18146300  1
  H  7  1  0.97461100  0.21956500  0.27941000  1
  H  8  1  0.91902500  0.14117000  0.42230000  1
  H  9  1  0.08851700  0.16879500  0.39937600  1
  H  13  1  0.05573400  0.14543700  0.48880600  1
  H  14  1  0.85585300  0.15784400  0.35201100  1
  H  15  1  0.06959200  0.23382500  0.26267200  1
  H  22  1  0.01617200  0.72558800  0.27946000  1
  H  23  1  0.07169700  0.80410200  0.42230800  1
  H  24  1  0.90222100  0.77639400  0.39936200  1
  H  28  1  0.93497100  0.79988800  0.48876300  1
  H  29  1  0.13491000  0.78731200  0.35211700  1
  H  30  1  0.92119000  0.71129400  0.26271300  1
  H  37  1  0.01611900  0.21967800  0.71864100  1
  H  38  1  0.07157000  0.14085000  0.57592900  1
  H  39  1  0.90214300  0.16879400  0.59878800  1
  H  43  1  0.93481200  0.14525500  0.50947800  1
  H  44  1  0.13480300  0.15769400  0.64613200  1
  H  45  1  0.92112000  0.23403000  0.73541500  1
  H  52  1  0.97455400  0.72558800  0.71861000  1
  H  53  1  0.91908700  0.80433400  0.57586300  1
  H  54  1  0.08853700  0.77662000  0.59882100  1
  H  58  1  0.05589000  0.80006600  0.50948400  1
  H  59  1  0.85583700  0.78739000  0.64598800  1
  H  60  1  0.06954700  0.71134700  0.73540200  1
  H  67  1  0.27573600  0.95202800  0.24608100  1
  H  68  1  0.41847000  0.89644700  0.16735700  1
  H  69  1  0.39581200  0.06587600  0.19551600  1
  H  73  1  0.48520900  0.03305100  0.17200000  1
  H  74  1  0.34825800  0.83327900  0.18417000  1
  H  75  1  0.25919500  0.04689400  0.26061700  1
  H  82  1  0.27562100  0.99311200  0.75217200  1
  H  83  1  0.41833800  0.04864700  0.83096800  1
  H  84  1  0.39582400  0.87926000  0.80241700  1
  H  88  1  0.48516800  0.91210400  0.82597200  1
  H  89  1  0.34809300  0.11182200  0.81421700  1
  H  90  1  0.25912200  0.89825100  0.73745300  1
  H  97  1  0.71516700  0.99307900  0.24589200  1
  H  98  1  0.57241600  0.04858800  0.16718700  1
  H  99  1  0.59493100  0.87919800  0.19573000  1
  H  103  1  0.50563400  0.91208300  0.17225700  1
  H  104  1  0.64269300  0.11173300  0.18382800  1
  H  105  1  0.73163800  0.89819100  0.26067400  1
  H  112  1  0.71512000  0.95204900  0.75210600  1
  H  113  1  0.57235200  0.89655000  0.83078300  1
  H  114  1  0.59490400  0.06593900  0.80232700  1
  H  118  1  0.50548900  0.03305600  0.82578900  1
  H  119  1  0.64262300  0.83340200  0.81413900  1
  H  120  1  0.73165000  0.04693900  0.73741000  1
  H  127  1  0.24228700  0.25295500  0.97831800  1
  H  128  1  0.16395200  0.39589300  0.92276500  1
  H  129  1  0.19148700  0.37287100  0.09226100  1
  H  133  1  0.16815600  0.46231300  0.05951400  1
  H  134  1  0.18069500  0.32567500  0.85955000  1
  H  135  1  0.25657600  0.23620100  0.07330800  1
  H  142  1  0.74832500  0.25299800  0.01978100  1
  H  143  1  0.82675700  0.39587800  0.07534100  1
  H  144  1  0.79921300  0.37287200  0.90584400  1
  H  148  1  0.82266900  0.46229000  0.93858700  1
  H  149  1  0.80994400  0.32568800  0.13855600  1
  H  150  1  0.73403900  0.23625100  0.92478800  1
  H  157  1  0.24246500  0.69218900  0.01989300  1
  H  158  1  0.16382700  0.54940500  0.07541600  1
  H  159  1  0.19133600  0.57241600  0.90594000  1
  H  163  1  0.16790100  0.48306100  0.93860000  1
  H  164  1  0.18079100  0.61953000  0.13866200  1
  H  165  1  0.25667500  0.70897900  0.92489000  1
  H  172  1  0.74836000  0.69217900  0.97820000  1
  H  173  1  0.82698100  0.54938600  0.92267200  1
  H  174  1  0.79946800  0.57239700  0.09215000  1
  H  178  1  0.82285800  0.48304700  0.05950100  1
  H  179  1  0.81001000  0.61951500  0.85942200  1
  H  180  1  0.73413200  0.70895600  0.07320400  1
  H  187  1  0.21338800  0.12424000  0.29182700  1
  H  188  1  0.28803900  0.19056900  0.15066700  1
  H  189  1  0.14688300  0.26519300  0.21699100  1
  H  199  1  0.77732600  0.82078400  0.29189300  1
  H  200  1  0.70282400  0.75467000  0.15057400  1
  H  201  1  0.84393600  0.67995200  0.21691700  1
  H  211  1  0.77742500  0.12430000  0.70624800  1
  H  212  1  0.70269400  0.19052400  0.84742000  1
  H  213  1  0.84381600  0.26526900  0.78115300  1
  H  223  1  0.21341100  0.82086500  0.70624800  1
  H  224  1  0.28795700  0.75470800  0.84752300  1
  H  225  1  0.14681300  0.68002200  0.78121400  1
  H  235  1  0.79107900  0.81911200  0.70612900  1
  H  236  1  0.70256200  0.76838100  0.84557900  1
  H  237  1  0.84168100  0.67957200  0.79453400  1
  H  247  1  0.19957000  0.12600200  0.70631000  1
  H  248  1  0.28815300  0.17683100  0.84565700  1
  H  249  1  0.14901100  0.26564100  0.79462300  1
  H  259  1  0.19967600  0.81907700  0.29200400  1
  H  260  1  0.28827300  0.76835400  0.15260000  1
  H  261  1  0.14906600  0.67959800  0.20350400  1
  H  271  1  0.79117800  0.12601000  0.29177900  1
  H  272  1  0.70257600  0.17678100  0.15242200  1
  H  273  1  0.84166600  0.26566500  0.20345700  1
  N  190  1  0.21165000  0.27031700  0.13532200  1
  N  191  1  0.13160000  0.18891000  0.29681500  1
  N  192  1  0.29324000  0.10893300  0.21553000  1
  N  202  1  0.77920400  0.67493600  0.13516600  1
  N  203  1  0.85915000  0.75618100  0.29684800  1
  N  204  1  0.69755600  0.83620500  0.21556600  1
  N  214  1  0.77903000  0.27032800  0.86279700  1
  N  215  1  0.85917100  0.18902900  0.70130800  1
  N  216  1  0.69751900  0.10893000  0.78247100  1
  N  226  1  0.21157900  0.67497300  0.86293700  1
  N  227  1  0.13158300  0.75626800  0.70130400  1
  N  228  1  0.29320800  0.83626000  0.78255100  1
  N  238  1  0.76299600  0.68824100  0.87187500  1
  N  239  1  0.86818200  0.74017800  0.71459500  1
  N  240  1  0.71116800  0.84568200  0.76682200  1
  N  250  1  0.22774200  0.25696700  0.87196300  1
  N  251  1  0.12244700  0.20493600  0.71472000  1
  N  252  1  0.27949500  0.09948200  0.76698200  1
  N  262  1  0.22781800  0.68825200  0.12622700  1
  N  263  1  0.12255400  0.74016400  0.28347000  1
  N  264  1  0.27964900  0.84563000  0.23137400  1
  N  274  1  0.76293000  0.25696000  0.12612500  1
  N  275  1  0.86825600  0.20498900  0.28336700  1
  N  276  1  0.71126700  0.09943900  0.23110900  1
