# generated using pymatgen
data_TbH3(CO)6
_symmetry_space_group_name_H-M   'P 1'
_cell_length_a   8.20172000
_cell_length_b   9.87719000
_cell_length_c   18.27825000
_cell_angle_alpha   90.09430000
_cell_angle_beta   90.01075000
_cell_angle_gamma   69.31747000
_symmetry_Int_Tables_number   1
_chemical_formula_structural   TbH3(CO)6
_chemical_formula_sum   'Tb4 H12 C24 O24'
_cell_volume   1385.28826626
_cell_formula_units_Z   4
loop_
 _symmetry_equiv_pos_site_id
 _symmetry_equiv_pos_as_xyz
  1  'x, y, z'
loop_
 _atom_site_type_symbol
 _atom_site_label
 _atom_site_symmetry_multiplicity
 _atom_site_fract_x
 _atom_site_fract_y
 _atom_site_fract_z
 _atom_site_occupancy
  Tb  Tb0  1  0.15779000  0.03263000  0.76414000  1
  Tb  Tb1  1  0.84494000  0.46662000  0.26330000  1
  Tb  Tb2  1  0.84522000  0.96677000  0.23876000  1
  Tb  Tb3  1  0.15672000  0.53154000  0.73874000  1
  H  H4  1  0.12225000  0.08086000  0.02234000  1
  H  H5  1  0.71885000  0.16774000  0.68912000  1
  H  H6  1  0.60936000  0.90707000  0.72728000  1
  H  H7  1  0.88087000  0.41937000  0.52233000  1
  H  H8  1  0.28484000  0.33058000  0.18917000  1
  H  H9  1  0.39278000  0.59333000  0.22552000  1
  H  H10  1  0.87773000  0.91576000  0.97998000  1
  H  H11  1  0.28455000  0.83367000  0.31176000  1
  H  H12  1  0.39507000  0.09399000  0.27337000  1
  H  H13  1  0.12228000  0.58678000  0.48000000  1
  H  H14  1  0.71703000  0.66641000  0.81168000  1
  H  H15  1  0.60600000  0.40609000  0.77341000  1
  C  C16  1  0.09329000  0.02384000  0.90817000  1
  C  C17  1  0.05567000  0.02759000  0.98734000  1
  C  C18  1  0.44476000  0.19290000  0.70878000  1
  C  C19  1  0.63321000  0.10754000  0.70016000  1
  C  C20  1  0.69659000  0.96441000  0.71322000  1
  C  C21  1  0.88524000  0.87680000  0.71538000  1
  C  C22  1  0.90417000  0.47892000  0.40804000  1
  C  C23  1  0.94498000  0.47400000  0.48704000  1
  C  C24  1  0.55898000  0.30775000  0.20740000  1
  C  C25  1  0.36979000  0.39183000  0.19951000  1
  C  C26  1  0.30581000  0.53523000  0.21224000  1
  C  C27  1  0.11709000  0.62266000  0.21495000  1
  C  C28  1  0.90564000  0.97448000  0.09439000  1
  C  C29  1  0.94365000  0.96934000  0.01514000  1
  C  C30  1  0.55912000  0.80617000  0.29260000  1
  C  C31  1  0.37085000  0.89322000  0.30043000  1
  C  C32  1  0.30812000  0.03633000  0.28728000  1
  C  C33  1  0.11937000  0.12339000  0.28543000  1
  C  C34  1  0.09739000  0.52447000  0.59400000  1
  C  C35  1  0.05764000  0.53180000  0.51482000  1
  C  C36  1  0.44246000  0.69304000  0.79279000  1
  C  C37  1  0.63070000  0.60674000  0.80058000  1
  C  C38  1  0.69316000  0.46360000  0.78730000  1
  C  C39  1  0.88175000  0.37640000  0.78521000  1
  O  O40  1  0.02345000  0.96062000  0.86305000  1
  O  O41  1  0.19732000  0.08674000  0.88519000  1
  O  O42  1  0.33402000  0.12831000  0.70755000  1
  O  O43  1  0.40346000  0.32863000  0.71877000  1
  O  O44  1  0.99912000  0.93290000  0.69777000  1
  O  O45  1  0.92345000  0.74628000  0.73652000  1
  O  O46  1  0.96949000  0.54559000  0.36296000  1
  O  O47  1  0.80323000  0.41311000  0.38505000  1
  O  O48  1  0.66831000  0.37349000  0.20432000  1
  O  O49  1  0.60255000  0.17226000  0.21866000  1
  O  O50  1  0.00336000  0.56659000  0.19685000  1
  O  O51  1  0.07863000  0.75286000  0.23685000  1
  O  O52  1  0.97533000  0.03920000  0.13877000  1
  O  O53  1  0.80234000  0.91182000  0.11833000  1
  O  O54  1  0.67216000  0.86829000  0.29604000  1
  O  O55  1  0.59785000  0.67114000  0.28129000  1
  O  O56  1  0.00684000  0.06654000  0.30376000  1
  O  O57  1  0.07906000  0.25375000  0.26368000  1
  O  O58  1  0.02968000  0.45758000  0.63787000  1
  O  O59  1  0.19950000  0.58783000  0.61841000  1
  O  O60  1  0.33016000  0.63022000  0.79610000  1
  O  O61  1  0.40318000  0.82809000  0.78147000  1
  O  O62  1  0.99434000  0.43335000  0.80371000  1
  O  O63  1  0.92169000  0.24605000  0.76347000  1
