# generated using pymatgen
data_ZnH9C11(NO2)2
_symmetry_space_group_name_H-M   'P 1'
_cell_length_a   7.86522000
_cell_length_b   8.56843000
_cell_length_c   12.49204000
_cell_angle_alpha   92.54960000
_cell_angle_beta   102.98851000
_cell_angle_gamma   93.85436000
_symmetry_Int_Tables_number   1
_chemical_formula_structural   ZnH9C11(NO2)2
_chemical_formula_sum   'Zn2 H18 C22 N4 O8'
_cell_volume   816.93725829
_cell_formula_units_Z   2
loop_
 _symmetry_equiv_pos_site_id
 _symmetry_equiv_pos_as_xyz
  1  'x, y, z'
loop_
 _atom_site_type_symbol
 _atom_site_label
 _atom_site_symmetry_multiplicity
 _atom_site_fract_x
 _atom_site_fract_y
 _atom_site_fract_z
 _atom_site_occupancy
  Zn  Zn0  1  0.81358000  0.51853000  0.51247000  1
  Zn  Zn1  1  0.18642000  0.48147000  0.48753000  1
  H  H2  1  0.99588000  0.29974000  0.13681000  1
  H  H3  1  0.80669000  0.99113000  0.51308000  1
  H  H4  1  0.47054000  0.35724000  0.43515000  1
  H  H5  1  0.52911000  0.65076000  0.55063000  1
  H  H6  1  0.71166000  0.45702000  0.78631000  1
  H  H7  1  0.88571000  0.30446000  0.93597000  1
  H  H8  1  0.63086000  0.63117000  0.18676000  1
  H  H9  1  0.93921000  0.65147000  0.85591000  1
  H  H10  1  0.03923000  0.66384000  0.05621000  1
  H  H11  1  0.19425000  0.00896000  0.48860000  1
  H  H12  1  0.25570000  0.60164000  0.21444000  1
  H  H13  1  0.48296000  0.36476000  0.22884000  1
  H  H14  1  0.31062000  0.30615000  0.10915000  1
  H  H15  1  0.26423000  0.34170000  0.24272000  1
  H  H16  1  0.63432000  0.71602000  0.72526000  1
  H  H17  1  0.29298000  0.83406000  0.73818000  1
  H  H18  1  0.47187000  0.93129000  0.69498000  1
  H  H19  1  0.49355000  0.89872000  0.83910000  1
  C  C20  1  0.04424000  0.79435000  0.49744000  1
  C  C21  1  0.41590000  0.56318000  0.98722000  1
  C  C22  1  0.36250000  0.57785000  0.87338000  1
  C  C23  1  0.58675000  0.51819000  0.02593000  1
  C  C24  1  0.67548000  0.44882000  0.95156000  1
  C  C25  1  0.62810000  0.48295000  0.84172000  1
  C  C26  1  0.49235000  0.58018000  0.81141000  1
  C  C27  1  0.67667000  0.54880000  0.13345000  1
  C  C28  1  0.89033000  0.37058000  0.10472000  1
  C  C29  1  0.18337000  0.58095000  0.82512000  1
  C  C30  1  0.06749000  0.95809000  0.49649000  1
  C  C31  1  0.11349000  0.52990000  0.70806000  1
  C  C32  1  0.93333000  0.04202000  0.50499000  1
  C  C33  1  0.95602000  0.20570000  0.50303000  1
  C  C34  1  0.88931000  0.48475000  0.29162000  1
  C  C35  1  0.82215000  0.36669000  0.99149000  1
  C  C36  1  0.82352000  0.47062000  0.17434000  1
  C  C37  1  0.07207000  0.62691000  0.89177000  1
  C  C38  1  0.12963000  0.63483000  0.00600000  1
  C  C39  1  0.29412000  0.58546000  0.05449000  1
  C  C40  1  0.34665000  0.38196000  0.18675000  1
  C  C41  1  0.43772000  0.84798000  0.75398000  1
  N  N42  1  0.43480000  0.45669000  0.47085000  1
  N  N43  1  0.56520000  0.54331000  0.52915000  1
  N  N44  1  0.32817000  0.54672000  0.16689000  1
  N  N45  1  0.50877000  0.69935000  0.73708000  1
  O  O46  1  0.89306000  0.73888000  0.50715000  1
  O  O47  1  0.17225000  0.71113000  0.48847000  1
  O  O48  1  0.94470000  0.52073000  0.66760000  1
  O  O49  1  0.22389000  0.49298000  0.64892000  1
  O  O50  1  0.82775000  0.28887000  0.51153000  1
  O  O51  1  0.10694000  0.26112000  0.49285000  1
  O  O52  1  0.77611000  0.50702000  0.35108000  1
  O  O53  1  0.05530000  0.47927000  0.33240000  1
