# generated using pymatgen
data_CuH7C8(NO2)2
_symmetry_space_group_name_H-M   'P 1'
_cell_length_a   9.98216000
_cell_length_b   9.98253000
_cell_length_c   15.44141000
_cell_angle_alpha   71.60111000
_cell_angle_beta   71.70319000
_cell_angle_gamma   84.90662000
_symmetry_Int_Tables_number   1
_chemical_formula_structural   CuH7C8(NO2)2
_chemical_formula_sum   'Cu4 H28 C32 N8 O16'
_cell_volume   1386.13270324
_cell_formula_units_Z   4
loop_
 _symmetry_equiv_pos_site_id
 _symmetry_equiv_pos_as_xyz
  1  'x, y, z'
loop_
 _atom_site_type_symbol
 _atom_site_label
 _atom_site_symmetry_multiplicity
 _atom_site_fract_x
 _atom_site_fract_y
 _atom_site_fract_z
 _atom_site_occupancy
  Cu  Cu1  1  0.54591000  0.01313000  0.30341000  1.0
  Cu  Cu2  1  0.98685000  0.45426000  0.19630000  1.0
  Cu  Cu3  1  0.45409000  0.98687000  0.69659000  1.0
  Cu  Cu4  1  0.01315000  0.54574000  0.80370000  1.0
  H  H1  1  0.80581000  0.16535000  0.03374000  1.0
  H  H2  1  0.78172000  0.20211000  0.31005000  1.0
  H  H3  1  0.39919000  0.26547000  0.37660000  1.0
  H  H4  1  0.54900000  0.22477000  0.42080000  1.0
  H  H5  1  0.42503000  0.28876000  0.21114000  1.0
  H  H6  1  0.59570000  0.26940000  0.13180000  1.0
  H  H7  1  0.37703000  0.48915000  0.26901000  1.0
  H  H8  1  0.83490000  0.19438000  0.46607000  1.0
  H  H9  1  0.79742000  0.21887000  0.18914000  1.0
  H  H10  1  0.73377000  0.60141000  0.12300000  1.0
  H  H11  1  0.77437000  0.45140000  0.07891000  1.0
  H  H12  1  0.71127000  0.57473000  0.28875000  1.0
  H  H13  1  0.73087000  0.40354000  0.36789000  1.0
  H  H14  1  0.51093000  0.62297000  0.23068000  1.0
  H  H15  1  0.19419000  0.83465000  0.96626000  1.0
  H  H16  1  0.21828000  0.79789000  0.68995000  1.0
  H  H17  1  0.60081000  0.73453000  0.62341000  1.0
  H  H18  1  0.45100000  0.77523000  0.57920000  1.0
  H  H19  1  0.57496000  0.71124000  0.78887000  1.0
  H  H20  1  0.40430000  0.73060000  0.86820000  1.0
  H  H21  1  0.62297000  0.51085000  0.73099000  1.0
  H  H22  1  0.16510000  0.80562000  0.53393000  1.0
  H  H23  1  0.20258000  0.78113000  0.81086000  1.0
  H  H24  1  0.26623000  0.39859000  0.87701000  1.0
  H  H25  1  0.22562000  0.54860000  0.92109000  1.0
  H  H26  1  0.28873000  0.42527000  0.71126000  1.0
  H  H27  1  0.26913000  0.59646000  0.63211000  1.0
  H  H28  1  0.48906000  0.37703000  0.76932000  1.0
  C  C1  1  0.87953000  0.95359000  0.08004000  1.0
  C  C2  1  0.99009000  0.85948000  0.06044000  1.0
  C  C3  1  0.89175000  0.09283000  0.01936000  1.0
  C  C4  1  0.74699000  0.91211000  0.16298000  1.0
  C  C5  1  0.99034000  0.71145000  0.12364000  1.0
  C  C6  1  0.51243000  0.28370000  0.35942000  1.0
  C  C7  1  0.53820000  0.30953000  0.19161000  1.0
  C  C8  1  0.04632000  0.12090000  0.42012000  1.0
  C  C9  1  0.14051000  0.01019000  0.43953000  1.0
  C  C10  1  0.90724000  0.10836000  0.48081000  1.0
  C  C11  1  0.08761000  0.25360000  0.33710000  1.0
  C  C12  1  0.28883000  0.00974000  0.37685000  1.0
  C  C13  1  0.71579000  0.48803000  0.14021000  1.0
  C  C14  1  0.69063000  0.46149000  0.30811000  1.0
  C  C15  1  0.12046000  0.04641000  0.91996000  1.0
  C  C16  1  0.00991000  0.14052000  0.93957000  1.0
  C  C17  1  0.10825000  0.90717000  0.98064000  1.0
  C  C18  1  0.25301000  0.08788000  0.83702000  1.0
  C  C19  1  0.00966000  0.28855000  0.87637000  1.0
  C  C20  1  0.48757000  0.71629000  0.64058000  1.0
  C  C21  1  0.46179000  0.69047000  0.80840000  1.0
  C  C22  1  0.95367000  0.87910000  0.57988000  1.0
  C  C23  1  0.85948000  0.98981000  0.56047000  1.0
  C  C24  1  0.09276000  0.89164000  0.51919000  1.0
  C  C25  1  0.91238000  0.74640000  0.66291000  1.0
  C  C26  1  0.71117000  0.99026000  0.62316000  1.0
  C  C27  1  0.28421000  0.51197000  0.85979000  1.0
  C  C28  1  0.30937000  0.53851000  0.69190000  1.0
  C  C29  1  0.74244000  0.25769000  0.24969000  1.0
  C  C30  1  0.49020000  0.50976000  0.24986000  1.0
  C  C31  1  0.25756000  0.74231000  0.75031000  1.0
  C  C32  1  0.50979000  0.49024000  0.75015000  1.0
  N  N1  1  0.58853000  0.22889000  0.27650000  1.0
  N  N2  1  0.54016000  0.43457000  0.33318000  1.0
  N  N3  1  0.77104000  0.41170000  0.22307000  1.0
  N  N4  1  0.56503000  0.46010000  0.16650000  1.0
  N  N5  1  0.41147000  0.77111000  0.72350000  1.0
  N  N6  1  0.45984000  0.56543000  0.66682000  1.0
  N  N7  1  0.22896000  0.58830000  0.77694000  1.0
  N  N8  1  0.43497000  0.53990000  0.83351000  1.0
  O  O1  1  0.71088000  0.01247000  0.20369000  1.0
  O  O2  1  0.68135000  0.80023000  0.18614000  1.0
  O  O3  1  0.01914000  0.61272000  0.08125000  1.0
  O  O4  1  0.96706000  0.68089000  0.21234000  1.0
  O  O5  1  0.98564000  0.29214000  0.29803000  1.0
  O  O6  1  0.20117000  0.31701000  0.31199000  1.0
  O  O7  1  0.38732000  0.98088000  0.41949000  1.0
  O  O8  1  0.31975000  0.03247000  0.28816000  1.0
  O  O9  1  0.28912000  0.98753000  0.79632000  1.0
  O  O10  1  0.31865000  0.19977000  0.81387000  1.0
  O  O11  1  0.98086000  0.38728000  0.91876000  1.0
  O  O12  1  0.03293000  0.31911000  0.78766000  1.0
  O  O13  1  0.01436000  0.70786000  0.70197000  1.0
  O  O14  1  0.79882000  0.68299000  0.68801000  1.0
  O  O15  1  0.61268000  0.01911000  0.58051000  1.0
  O  O16  1  0.68025000  0.96752000  0.71185000  1.0
