# generated using pymatgen
data_LaH2(C4O3)3
_symmetry_space_group_name_H-M   'P 1'
_cell_length_a   10.94973000
_cell_length_b   11.36016000
_cell_length_c   12.60595000
_cell_angle_alpha   104.82734000
_cell_angle_beta   106.00725000
_cell_angle_gamma   101.42776000
_symmetry_Int_Tables_number   1
_chemical_formula_structural   LaH2(C4O3)3
_chemical_formula_sum   'La2 H4 C24 O18'
_cell_volume   1394.82535278
_cell_formula_units_Z   2
loop_
 _symmetry_equiv_pos_site_id
 _symmetry_equiv_pos_as_xyz
  1  'x, y, z'
loop_
 _atom_site_type_symbol
 _atom_site_label
 _atom_site_symmetry_multiplicity
 _atom_site_fract_x
 _atom_site_fract_y
 _atom_site_fract_z
 _atom_site_occupancy
  La  La1  1  0.41600000  0.42823000  0.82847000  1.0
  La  La2  1  0.58400000  0.57176000  0.17153000  1.0
  H  H1  1  0.10941000  0.44453000  0.85200000  1.0
  H  H2  1  0.46914000  0.84240000  0.80811000  1.0
  H  H3  1  0.89059000  0.55547000  0.14799000  1.0
  H  H4  1  0.53086000  0.15760000  0.19189000  1.0
  C  C1  1  0.06962000  0.02506000  0.51095000  1.0
  C  C2  1  0.07642000  0.54111000  0.12432000  1.0
  C  C3  1  0.93609000  0.11558000  0.56031000  1.0
  C  C4  1  0.06800000  0.47105000  0.92093000  1.0
  C  C5  1  0.08220000  0.14940000  0.57341000  1.0
  C  C6  1  0.51747000  0.87366000  0.99059000  1.0
  C  C7  1  0.28958000  0.52841000  0.07324000  1.0
  C  C8  1  0.14311000  0.51287000  0.03593000  1.0
  C  C9  1  0.19402000  0.26516000  0.63837000  1.0
  C  C10  1  0.53681000  0.74420000  0.98063000  1.0
  C  C11  1  0.48322000  0.90771000  0.89356000  1.0
  C  C12  1  0.53224000  0.96520000  0.10541000  1.0
  C  C13  1  0.93041000  0.97491000  0.48905000  1.0
  C  C14  1  0.92358000  0.45888000  0.87568000  1.0
  C  C15  1  0.06394000  0.88438000  0.43972000  1.0
  C  C16  1  0.93200000  0.52894000  0.07907000  1.0
  C  C17  1  0.91782000  0.85057000  0.42659000  1.0
  C  C18  1  0.48253000  0.12634000  0.00940000  1.0
  C  C19  1  0.71041000  0.47159000  0.92675000  1.0
  C  C20  1  0.85689000  0.48712000  0.96406000  1.0
  C  C21  1  0.80600000  0.73482000  0.36162000  1.0
  C  C22  1  0.46319000  0.25579000  0.01937000  1.0
  C  C23  1  0.51677000  0.09229000  0.10644000  1.0
  C  C24  1  0.46775000  0.03480000  0.89458000  1.0
  O  O1  1  0.13214000  0.56971000  0.23031000  1.0
  O  O2  1  0.48992000  0.66021000  0.87908000  1.0
  O  O3  1  0.59880000  0.72634000  0.07390000  1.0
  O  O4  1  0.30839000  0.26779000  0.62999000  1.0
  O  O5  1  0.17586000  0.35816000  0.70956000  1.0
  O  O6  1  0.55119000  0.93969000  0.19686000  1.0
  O  O7  1  0.34549000  0.51779000  0.99413000  1.0
  O  O8  1  0.35728000  0.55366000  0.17958000  1.0
  O  O9  1  0.85879000  0.16646000  0.58857000  1.0
  O  O10  1  0.86786000  0.43027000  0.76968000  1.0
  O  O11  1  0.51007000  0.33979000  0.12091000  1.0
  O  O12  1  0.40120000  0.27366000  0.92609000  1.0
  O  O13  1  0.69164000  0.73221000  0.37001000  1.0
  O  O14  1  0.82414000  0.64181000  0.29043000  1.0
  O  O15  1  0.44880000  0.06031000  0.80313000  1.0
  O  O16  1  0.65451000  0.48221000  0.00586000  1.0
  O  O17  1  0.64272000  0.44634000  0.82042000  1.0
  O  O18  1  0.14130000  0.83353000  0.41153000  1.0
