# generated using pymatgen
data_CaH2C6SO4
_symmetry_space_group_name_H-M   'P 1'
_cell_length_a   6.57710000
_cell_length_b   11.12260000
_cell_length_c   18.03300000
_cell_angle_alpha   90.00000000
_cell_angle_beta   97.60200000
_cell_angle_gamma   90.00000000
_symmetry_Int_Tables_number   1
_chemical_formula_structural   CaH2C6SO4
_chemical_formula_sum   'Ca4 H8 C24 S4 O16'
_cell_volume   1307.59974149
_cell_formula_units_Z   4
loop_
 _symmetry_equiv_pos_site_id
 _symmetry_equiv_pos_as_xyz
  1  'x, y, z'
loop_
 _atom_site_type_symbol
 _atom_site_label
 _atom_site_symmetry_multiplicity
 _atom_site_fract_x
 _atom_site_fract_y
 _atom_site_fract_z
 _atom_site_occupancy
  Ca  Ca1  1  0.25266000  0.90663000  0.47691000  1.0
  Ca  Ca2  1  0.24734000  0.40663000  0.02309000  1.0
  Ca  Ca3  1  0.74734000  0.09337000  0.52309000  1.0
  Ca  Ca4  1  0.75266000  0.59337000  0.97691000  1.0
  H  H1  1  0.61500000  0.10610000  0.70440000  1.0
  H  H2  1  0.58240000  0.19600000  0.82560000  1.0
  H  H3  1  0.88500000  0.60610000  0.79560000  1.0
  H  H4  1  0.91760000  0.69600000  0.67440000  1.0
  H  H5  1  0.38500000  0.89390000  0.29560000  1.0
  H  H6  1  0.41760000  0.80400000  0.17440000  1.0
  H  H7  1  0.11500000  0.39390000  0.20440000  1.0
  H  H8  1  0.08240000  0.30400000  0.32560000  1.0
  C  C1  1  0.19460000  0.28590000  0.85670000  1.0
  C  C2  1  0.27550000  0.09530000  0.59173000  1.0
  C  C3  1  0.31340000  0.13740000  0.66982000  1.0
  C  C4  1  0.49290000  0.13720000  0.71702000  1.0
  C  C5  1  0.47410000  0.18910000  0.78708000  1.0
  C  C6  1  0.27920000  0.22820000  0.79229000  1.0
  C  C7  1  0.30540000  0.78590000  0.64330000  1.0
  C  C8  1  0.22450000  0.59530000  0.90827000  1.0
  C  C9  1  0.18660000  0.63740000  0.83018000  1.0
  C  C10  1  0.00710000  0.63720000  0.78298000  1.0
  C  C11  1  0.02590000  0.68910000  0.71292000  1.0
  C  C12  1  0.22080000  0.72820000  0.70771000  1.0
  C  C13  1  0.80540000  0.71410000  0.14330000  1.0
  C  C14  1  0.72450000  0.90470000  0.40827000  1.0
  C  C15  1  0.68660000  0.86260000  0.33018000  1.0
  C  C16  1  0.50710000  0.86280000  0.28298000  1.0
  C  C17  1  0.52590000  0.81090000  0.21292000  1.0
  C  C18  1  0.72080000  0.77180000  0.20771000  1.0
  C  C19  1  0.69460000  0.21410000  0.35670000  1.0
  C  C20  1  0.77550000  0.40470000  0.09173000  1.0
  C  C21  1  0.81340000  0.36260000  0.16982000  1.0
  C  C22  1  0.99290000  0.36280000  0.21702000  1.0
  C  C23  1  0.97410000  0.31090000  0.28708000  1.0
  C  C24  1  0.77920000  0.27180000  0.29229000  1.0
  S  S1  1  0.11732000  0.19898000  0.71174000  1.0
  S  S2  1  0.38268000  0.69898000  0.78826000  1.0
  S  S3  1  0.88268000  0.80102000  0.28826000  1.0
  S  S4  1  0.61732000  0.30102000  0.21174000  1.0
  O  O1  1  0.09550000  0.09620000  0.55836000  1.0
  O  O2  1  0.42470000  0.05675000  0.56162000  1.0
  O  O3  1  0.32440000  0.32180000  0.91011000  1.0
  O  O4  1  0.00590000  0.29400000  0.85249000  1.0
  O  O5  1  0.40450000  0.59620000  0.94164000  1.0
  O  O6  1  0.07530000  0.55675000  0.93838000  1.0
  O  O7  1  0.17560000  0.82180000  0.58989000  1.0
  O  O8  1  0.49410000  0.79400000  0.64751000  1.0
  O  O9  1  0.90450000  0.90380000  0.44164000  1.0
  O  O10  1  0.57530000  0.94325000  0.43838000  1.0
  O  O11  1  0.67560000  0.67820000  0.08989000  1.0
  O  O12  1  0.99410000  0.70600000  0.14751000  1.0
  O  O13  1  0.59550000  0.40380000  0.05836000  1.0
  O  O14  1  0.92470000  0.44325000  0.06162000  1.0
  O  O15  1  0.82440000  0.17820000  0.41011000  1.0
  O  O16  1  0.50590000  0.20600000  0.35249000  1.0
