# generated using pymatgen
data_Cd2H38C38N5O8
_symmetry_space_group_name_H-M   'P 1'
_cell_length_a   15.92940000
_cell_length_b   15.93336000
_cell_length_c   20.15448000
_cell_angle_alpha   84.55341000
_cell_angle_beta   84.53780000
_cell_angle_gamma   70.73729000
_symmetry_Int_Tables_number   1
_chemical_formula_structural   Cd2H38C38N5O8
_chemical_formula_sum   'Cd8 H152 C152 N20 O32'
_cell_volume   4796.08530257
_cell_formula_units_Z   4
loop_
 _symmetry_equiv_pos_site_id
 _symmetry_equiv_pos_as_xyz
  1  'x, y, z'
loop_
 _atom_site_type_symbol
 _atom_site_label
 _atom_site_symmetry_multiplicity
 _atom_site_fract_x
 _atom_site_fract_y
 _atom_site_fract_z
 _atom_site_occupancy
  Cd  Cd1  1  0.72815000  0.67396000  0.80823000  1.0
  Cd  Cd2  1  0.81939000  0.82576000  0.72415000  1.0
  Cd  Cd3  1  0.32529000  0.27192000  0.69149000  1.0
  Cd  Cd4  1  0.17500000  0.18017000  0.77573000  1.0
  Cd  Cd5  1  0.27185000  0.32604000  0.19177000  1.0
  Cd  Cd6  1  0.18061000  0.17424000  0.27585000  1.0
  Cd  Cd7  1  0.67471000  0.72808000  0.30851000  1.0
  Cd  Cd8  1  0.82500000  0.81983000  0.22427000  1.0
  H  H1  1  0.96634000  0.84403000  0.89516000  1.0
  H  H2  1  0.06767000  0.75535000  0.89402000  1.0
  H  H3  1  0.07909000  0.77321000  0.00872000  1.0
  H  H4  1  0.97869000  0.86092000  0.00825000  1.0
  H  H5  1  0.00862000  0.66422000  0.04456000  1.0
  H  H6  1  0.81518000  0.66265000  0.05716000  1.0
  H  H7  1  0.81753000  0.63777000  0.97200000  1.0
  H  H8  1  0.91107000  0.58448000  0.02040000  1.0
  H  H9  1  0.83370000  0.86934000  0.96498000  1.0
  H  H10  1  0.76402000  0.80642000  0.95203000  1.0
  H  H11  1  0.77902000  0.82579000  0.03470000  1.0
  H  H12  1  0.05860000  0.61478000  0.86744000  1.0
  H  H13  1  0.06181000  0.59995000  0.95533000  1.0
  H  H14  1  0.98274000  0.56889000  0.91474000  1.0
  H  H15  1  0.98242000  0.62748000  0.63387000  1.0
  H  H16  1  0.93389000  0.61478000  0.56214000  1.0
  H  H17  1  0.06321000  0.48960000  0.53325000  1.0
  H  H18  1  0.11563000  0.52507000  0.59253000  1.0
  H  H19  1  0.04239000  0.37351000  0.60527000  1.0
  H  H20  1  0.88381000  0.40974000  0.75083000  1.0
  H  H21  1  0.99210000  0.32035000  0.74691000  1.0
  H  H22  1  0.05799000  0.44703000  0.78439000  1.0
  H  H23  1  0.81108000  0.54863000  0.58043000  1.0
  H  H24  1  0.90209000  0.44890000  0.57296000  1.0
  H  H25  1  0.82062000  0.45786000  0.64146000  1.0
  H  H26  1  0.54284000  0.76708000  0.58764000  1.0
  H  H27  1  0.66721000  0.74440000  0.66021000  1.0
  H  H28  1  0.53033000  0.66015000  0.82366000  1.0
  H  H29  1  0.39853000  0.68055000  0.75840000  1.0
  H  H30  1  0.09530000  0.81484000  0.53829000  1.0
  H  H31  1  0.93893000  0.83966000  0.58284000  1.0
  H  H32  1  0.01313000  0.76484000  0.77622000  1.0
  H  H33  1  0.17461000  0.73396000  0.74088000  1.0
  H  H34  1  0.35144000  0.83417000  0.43722000  1.0
  H  H35  1  0.46719000  0.81612000  0.34257000  1.0
  H  H36  1  0.65099000  0.61288000  0.44695000  1.0
  H  H37  1  0.54197000  0.61797000  0.54577000  1.0
  H  H38  1  0.25467000  0.75703000  0.51095000  1.0
  H  H39  1  0.15509000  0.03492000  0.60420000  1.0
  H  H40  1  0.24320000  0.93331000  0.60567000  1.0
  H  H41  1  0.22537000  0.92206000  0.49077000  1.0
  H  H42  1  0.13890000  0.02338000  0.49111000  1.0
  H  H43  1  0.33608000  0.99135000  0.45575000  1.0
  H  H44  1  0.33691000  0.18630000  0.44361000  1.0
  H  H45  1  0.36204000  0.18266000  0.52878000  1.0
  H  H46  1  0.41569000  0.09013000  0.47950000  1.0
  H  H47  1  0.13064000  0.16672000  0.53473000  1.0
  H  H48  1  0.19363000  0.23642000  0.54748000  1.0
  H  H49  1  0.17467000  0.22070000  0.46486000  1.0
  H  H50  1  0.38549000  0.94090000  0.63181000  1.0
  H  H51  1  0.39958000  0.93840000  0.54381000  1.0
  H  H52  1  0.43086000  0.01725000  0.58462000  1.0
  H  H53  1  0.37292000  0.01688000  0.86875000  1.0
  H  H54  1  0.38748000  0.06491000  0.94006000  1.0
  H  H55  1  0.51295000  0.93529000  0.96720000  1.0
  H  H56  1  0.47663000  0.88345000  0.90791000  1.0
  H  H57  1  0.62771000  0.95770000  0.89430000  1.0
  H  H58  1  0.58823000  0.11746000  0.74959000  1.0
  H  H59  1  0.67876000  0.01006000  0.75300000  1.0
  H  H60  1  0.55264000  0.94255000  0.71571000  1.0
  H  H61  1  0.45218000  0.18824000  0.92091000  1.0
  H  H62  1  0.55269000  0.09777000  0.92672000  1.0
  H  H63  1  0.54132000  0.18008000  0.85870000  1.0
  H  H64  1  0.23297000  0.45724000  0.91244000  1.0
  H  H65  1  0.25547000  0.33272000  0.84011000  1.0
  H  H66  1  0.33873000  0.46963000  0.67621000  1.0
  H  H67  1  0.31872000  0.60140000  0.74133000  1.0
  H  H68  1  0.18591000  0.90451000  0.96165000  1.0
  H  H69  1  0.16184000  0.06066000  0.91707000  1.0
  H  H70  1  0.23628000  0.98612000  0.72364000  1.0
  H  H71  1  0.26655000  0.82476000  0.75914000  1.0
  H  H72  1  0.16694000  0.64856000  0.06262000  1.0
  H  H73  1  0.18528000  0.53276000  0.15732000  1.0
  H  H74  1  0.38727000  0.34855000  0.05221000  1.0
  H  H75  1  0.38231000  0.45784000  0.95352000  1.0
  H  H76  1  0.24400000  0.74506000  0.98900000  1.0
  H  H77  1  0.03366000  0.15597000  0.10484000  1.0
  H  H78  1  0.93233000  0.24465000  0.10598000  1.0
  H  H79  1  0.92091000  0.22679000  0.99128000  1.0
  H  H80  1  0.02131000  0.13909000  0.99175000  1.0
  H  H81  1  0.99138000  0.33578000  0.95544000  1.0
  H  H82  1  0.18482000  0.33735000  0.94284000  1.0
  H  H83  1  0.18247000  0.36223000  0.02800000  1.0
  H  H84  1  0.08893000  0.41552000  0.97959000  1.0
  H  H85  1  0.16630000  0.13066000  0.03502000  1.0
  H  H86  1  0.23598000  0.19358000  0.04797000  1.0
  H  H87  1  0.22098000  0.17421000  0.96530000  1.0
  H  H88  1  0.94141000  0.38522000  0.13256000  1.0
  H  H89  1  0.93819000  0.40005000  0.04467000  1.0
  H  H90  1  0.01726000  0.43111000  0.08526000  1.0
  H  H91  1  0.01759000  0.37253000  0.36612000  1.0
  H  H92  1  0.06611000  0.38522000  0.43786000  1.0
  H  H93  1  0.93679000  0.51040000  0.46675000  1.0
  H  H94  1  0.88437000  0.47493000  0.40747000  1.0
  H  H95  1  0.95761000  0.62650000  0.39473000  1.0
  H  H96  1  0.11619000  0.59026000  0.24917000  1.0
  H  H97  1  0.00790000  0.67965000  0.25309000  1.0
  H  H98  1  0.94201000  0.55297000  0.21561000  1.0
  H  H99  1  0.18892000  0.45137000  0.41956000  1.0
  H  H100  1  0.09791000  0.55110000  0.42704000  1.0
  H  H101  1  0.17938000  0.54214000  0.35854000  1.0
  H  H102  1  0.45716000  0.23292000  0.41236000  1.0
  H  H103  1  0.33279000  0.25561000  0.33979000  1.0
  H  H104  1  0.46967000  0.33985000  0.17634000  1.0
  H  H105  1  0.60147000  0.31945000  0.24160000  1.0
  H  H106  1  0.90470000  0.18516000  0.46171000  1.0
  H  H107  1  0.06107000  0.16034000  0.41716000  1.0
  H  H108  1  0.98687000  0.23517000  0.22378000  1.0
  H  H109  1  0.82539000  0.26604000  0.25912000  1.0
  H  H110  1  0.64856000  0.16584000  0.56278000  1.0
  H  H111  1  0.53281000  0.18388000  0.65743000  1.0
  H  H112  1  0.34901000  0.38712000  0.55305000  1.0
  H  H113  1  0.45803000  0.38203000  0.45423000  1.0
  H  H114  1  0.74533000  0.24298000  0.48904000  1.0
  H  H115  1  0.84491000  0.96508000  0.39580000  1.0
  H  H116  1  0.75680000  0.06670000  0.39433000  1.0
  H  H117  1  0.77463000  0.07794000  0.50923000  1.0
  H  H118  1  0.86110000  0.97662000  0.50889000  1.0
  H  H119  1  0.66392000  0.00865000  0.54425000  1.0
  H  H120  1  0.66309000  0.81371000  0.55639000  1.0
  H  H121  1  0.63796000  0.81734000  0.47122000  1.0
  H  H122  1  0.58431000  0.90987000  0.52050000  1.0
  H  H123  1  0.86936000  0.83329000  0.46527000  1.0
  H  H124  1  0.80637000  0.76359000  0.45251000  1.0
  H  H125  1  0.82533000  0.77931000  0.53514000  1.0
  H  H126  1  0.61451000  0.05910000  0.36819000  1.0
  H  H127  1  0.60042000  0.06161000  0.45618000  1.0
  H  H128  1  0.56914000  0.98276000  0.41538000  1.0
  H  H129  1  0.62708000  0.98312000  0.13125000  1.0
  H  H130  1  0.61252000  0.93509000  0.05993000  1.0
  H  H131  1  0.48705000  0.06471000  0.03280000  1.0
  H  H132  1  0.52337000  0.11655000  0.09209000  1.0
  H  H133  1  0.37229000  0.04230000  0.10570000  1.0
  H  H134  1  0.41177000  0.88254000  0.25041000  1.0
  H  H135  1  0.32124000  0.98995000  0.24699000  1.0
  H  H136  1  0.44736000  0.05745000  0.28428000  1.0
  H  H137  1  0.54782000  0.81176000  0.07909000  1.0
  H  H138  1  0.44731000  0.90223000  0.07328000  1.0
  H  H139  1  0.45868000  0.81992000  0.14130000  1.0
  H  H140  1  0.76703000  0.54276000  0.08756000  1.0
  H  H141  1  0.74453000  0.66728000  0.15989000  1.0
  H  H142  1  0.66127000  0.53037000  0.32379000  1.0
  H  H143  1  0.68128000  0.39860000  0.25867000  1.0
  H  H144  1  0.81409000  0.09550000  0.03835000  1.0
  H  H145  1  0.83816000  0.93934000  0.08292000  1.0
  H  H146  1  0.76372000  0.01388000  0.27636000  1.0
  H  H147  1  0.73345000  0.17524000  0.24085000  1.0
  H  H148  1  0.83306000  0.35144000  0.93738000  1.0
  H  H149  1  0.81472000  0.46725000  0.84268000  1.0
  H  H150  1  0.61273000  0.65145000  0.94779000  1.0
  H  H151  1  0.61769000  0.54216000  0.04648000  1.0
  H  H152  1  0.75600000  0.25494000  0.01100000  1.0
  C  C1  1  0.89231000  0.72472000  0.98905000  1.0
  C  C2  1  0.95015000  0.71360000  0.92002000  1.0
  C  C3  1  0.00209000  0.78042000  0.92103000  1.0
  C  C4  1  0.00984000  0.79146000  0.99561000  1.0
  C  C5  1  0.96109000  0.73195000  0.03626000  1.0
  C  C6  1  0.85696000  0.64715000  0.01070000  1.0
  C  C7  1  0.81282000  0.81219000  0.98491000  1.0
  C  C8  1  0.92701000  0.76141000  0.10658000  1.0
  C  C9  1  0.88722000  0.73270000  0.86276000  1.0
  C  C10  1  0.01682000  0.61843000  0.91443000  1.0
  C  C11  1  0.98491000  0.45398000  0.68726000  1.0
  C  C12  1  0.91252000  0.53139000  0.65068000  1.0
  C  C13  1  0.96983000  0.57813000  0.60536000  1.0
  C  C14  1  0.05782000  0.50491000  0.58567000  1.0
  C  C15  1  0.06049000  0.42129000  0.63256000  1.0
  C  C16  1  0.95622000  0.39200000  0.74211000  1.0
  C  C17  1  0.00054000  0.45398000  0.75718000  1.0
  C  C18  1  0.84755000  0.59308000  0.70008000  1.0
  C  C19  1  0.15248000  0.36912000  0.65562000  1.0
  C  C20  1  0.85827000  0.49408000  0.60902000  1.0
  C  C21  1  0.38427000  0.73134000  0.62812000  1.0
  C  C22  1  0.37424000  0.73699000  0.55907000  1.0
  C  C23  1  0.24311000  0.75577000  0.61777000  1.0
  C  C24  1  0.46126000  0.72091000  0.66605000  1.0
  C  C25  1  0.53760000  0.74089000  0.63906000  1.0
  C  C26  1  0.60747000  0.72856000  0.67937000  1.0
  C  C27  1  0.53064000  0.68221000  0.77084000  1.0
  C  C28  1  0.45787000  0.69275000  0.73434000  1.0
  C  C29  1  0.14919000  0.77100000  0.63621000  1.0
  C  C30  1  0.08133000  0.80090000  0.59136000  1.0
  C  C31  1  0.99326000  0.81549000  0.61593000  1.0
  C  C32  1  0.03518000  0.77331000  0.72406000  1.0
  C  C33  1  0.12445000  0.75685000  0.70418000  1.0
  C  C34  1  0.43712000  0.72774000  0.50074000  1.0
  C  C35  1  0.41601000  0.78258000  0.44158000  1.0
  C  C36  1  0.48033000  0.77341000  0.38849000  1.0
  C  C37  1  0.58315000  0.65931000  0.44704000  1.0
  C  C38  1  0.52273000  0.66349000  0.50199000  1.0
  C  C39  1  0.27543000  0.10797000  0.51092000  1.0
  C  C40  1  0.28640000  0.04991000  0.57978000  1.0
  C  C41  1  0.21882000  0.99884000  0.57859000  1.0
  C  C42  1  0.20812000  0.99117000  0.50395000  1.0
  C  C43  1  0.26846000  0.03918000  0.46362000  1.0
  C  C44  1  0.35279000  0.14376000  0.48966000  1.0
  C  C45  1  0.18791000  0.18739000  0.51481000  1.0
  C  C46  1  0.23988000  0.07352000  0.39321000  1.0
  C  C47  1  0.26842000  0.11185000  0.63747000  1.0
  C  C48  1  0.38148000  0.98295000  0.58495000  1.0
  C  C49  1  0.54567000  0.01539000  0.81307000  1.0
  C  C50  1  0.46844000  0.08723000  0.85035000  1.0
  C  C51  1  0.42309000  0.02930000  0.89641000  1.0
  C  C52  1  0.49688000  0.94118000  0.91494000  1.0
  C  C53  1  0.57973000  0.93947000  0.86730000  1.0
  C  C54  1  0.60690000  0.04496000  0.75809000  1.0
  C  C55  1  0.54558000  0.99991000  0.74319000  1.0
  C  C56  1  0.40484000  0.15187000  0.80175000  1.0
  C  C57  1  0.63240000  0.84788000  0.84348000  1.0
  C  C58  1  0.50623000  0.14168000  0.89148000  1.0
  C  C59  1  0.26871000  0.61568000  0.87179000  1.0
  C  C60  1  0.26363000  0.62564000  0.94077000  1.0
  C  C61  1  0.24461000  0.75672000  0.88221000  1.0
  C  C62  1  0.27886000  0.53873000  0.83386000  1.0
  C  C63  1  0.25896000  0.46243000  0.86098000  1.0
  C  C64  1  0.27113000  0.39248000  0.82077000  1.0
  C  C65  1  0.31701000  0.46929000  0.72909000  1.0
  C  C66  1  0.30665000  0.54208000  0.76552000  1.0
  C  C67  1  0.22965000  0.85053000  0.86374000  1.0
  C  C68  1  0.20002000  0.91837000  0.90858000  1.0
  C  C69  1  0.18578000  0.00634000  0.88397000  1.0
  C  C70  1  0.22771000  0.96425000  0.77582000  1.0
  C  C71  1  0.24388000  0.87505000  0.79576000  1.0
  C  C72  1  0.27304000  0.56270000  0.99899000  1.0
  C  C73  1  0.21841000  0.58392000  0.05821000  1.0
  C  C74  1  0.22765000  0.51959000  0.11123000  1.0
  C  C75  1  0.34115000  0.41651000  0.05233000  1.0
  C  C76  1  0.33706000  0.47702000  0.99746000  1.0
  C  C77  1  0.10769000  0.27528000  0.01095000  1.0
  C  C78  1  0.04985000  0.28640000  0.07998000  1.0
  C  C79  1  0.99791000  0.21958000  0.07896000  1.0
  C  C80  1  0.99016000  0.20854000  0.00439000  1.0
  C  C81  1  0.03891000  0.26805000  0.96374000  1.0
  C  C82  1  0.14304000  0.35285000  0.98930000  1.0
  C  C83  1  0.18718000  0.18781000  0.01509000  1.0
  C  C84  1  0.07299000  0.23860000  0.89342000  1.0
  C  C85  1  0.11278000  0.26731000  0.13724000  1.0
  C  C86  1  0.98318000  0.38157000  0.08557000  1.0
  C  C87  1  0.01509000  0.54602000  0.31274000  1.0
  C  C88  1  0.08748000  0.46861000  0.34932000  1.0
  C  C89  1  0.03017000  0.42187000  0.39464000  1.0
  C  C90  1  0.94218000  0.49509000  0.41433000  1.0
  C  C91  1  0.93951000  0.57871000  0.36743000  1.0
  C  C92  1  0.04378000  0.60801000  0.25788000  1.0
  C  C93  1  0.99946000  0.54602000  0.24282000  1.0
  C  C94  1  0.15245000  0.40692000  0.29992000  1.0
  C  C95  1  0.84752000  0.63088000  0.34438000  1.0
  C  C96  1  0.14173000  0.50592000  0.39098000  1.0
  C  C97  1  0.61573000  0.26866000  0.37188000  1.0
  C  C98  1  0.62576000  0.26301000  0.44093000  1.0
  C  C99  1  0.75689000  0.24423000  0.38223000  1.0
  C  C100  1  0.53874000  0.27909000  0.33395000  1.0
  C  C101  1  0.46240000  0.25911000  0.36094000  1.0
  C  C102  1  0.39253000  0.27144000  0.32063000  1.0
  C  C103  1  0.46936000  0.31779000  0.22915000  1.0
  C  C104  1  0.54213000  0.30726000  0.26566000  1.0
  C  C105  1  0.85081000  0.22900000  0.36379000  1.0
  C  C106  1  0.91867000  0.19910000  0.40863000  1.0
  C  C107  1  0.00674000  0.18451000  0.38407000  1.0
  C  C108  1  0.96482000  0.22669000  0.27594000  1.0
  C  C109  1  0.87555000  0.24315000  0.29582000  1.0
  C  C110  1  0.56288000  0.27227000  0.49925000  1.0
  C  C111  1  0.58399000  0.21742000  0.55842000  1.0
  C  C112  1  0.51967000  0.22659000  0.61151000  1.0
  C  C113  1  0.41685000  0.34069000  0.55296000  1.0
  C  C114  1  0.47727000  0.33651000  0.49801000  1.0
  C  C115  1  0.72457000  0.89203000  0.48908000  1.0
  C  C116  1  0.71360000  0.95009000  0.42022000  1.0
  C  C117  1  0.78118000  0.00116000  0.42141000  1.0
  C  C118  1  0.79188000  0.00883000  0.49605000  1.0
  C  C119  1  0.73154000  0.96082000  0.53638000  1.0
  C  C120  1  0.64721000  0.85624000  0.51034000  1.0
  C  C121  1  0.81209000  0.81261000  0.48519000  1.0
  C  C122  1  0.76012000  0.92648000  0.60679000  1.0
  C  C123  1  0.73158000  0.88815000  0.36253000  1.0
  C  C124  1  0.61852000  0.01705000  0.41505000  1.0
  C  C125  1  0.45433000  0.98461000  0.18692000  1.0
  C  C126  1  0.53156000  0.91277000  0.14965000  1.0
  C  C127  1  0.57691000  0.97070000  0.10359000  1.0
  C  C128  1  0.50312000  0.05882000  0.08506000  1.0
  C  C129  1  0.42027000  0.06053000  0.13270000  1.0
  C  C130  1  0.39310000  0.95504000  0.24191000  1.0
  C  C131  1  0.45442000  0.00009000  0.25681000  1.0
  C  C132  1  0.59516000  0.84813000  0.19824000  1.0
  C  C133  1  0.36760000  0.15212000  0.15651000  1.0
  C  C134  1  0.49377000  0.85832000  0.10852000  1.0
  C  C135  1  0.73129000  0.38432000  0.12821000  1.0
  C  C136  1  0.73637000  0.37436000  0.05923000  1.0
  C  C137  1  0.75539000  0.24328000  0.11779000  1.0
  C  C138  1  0.72114000  0.46127000  0.16614000  1.0
  C  C139  1  0.74104000  0.53757000  0.13902000  1.0
  C  C140  1  0.72887000  0.60752000  0.17922000  1.0
  C  C141  1  0.68299000  0.53071000  0.27091000  1.0
  C  C142  1  0.69335000  0.45792000  0.23448000  1.0
  C  C143  1  0.77035000  0.14947000  0.13626000  1.0
  C  C144  1  0.79998000  0.08163000  0.09142000  1.0
  C  C145  1  0.81422000  0.99366000  0.11603000  1.0
  C  C146  1  0.77229000  0.03575000  0.22418000  1.0
  C  C147  1  0.75612000  0.12495000  0.20424000  1.0
  C  C148  1  0.72696000  0.43730000  0.00101000  1.0
  C  C149  1  0.78159000  0.41608000  0.94179000  1.0
  C  C150  1  0.77235000  0.48042000  0.88877000  1.0
  C  C151  1  0.65885000  0.58349000  0.94767000  1.0
  C  C152  1  0.66294000  0.52298000  0.00254000  1.0
  N  N1  1  0.30327000  0.74228000  0.66261000  1.0
  N  N2  1  0.28376000  0.75383000  0.55426000  1.0
  N  N3  1  0.60486000  0.69845000  0.74404000  1.0
  N  N4  1  0.96991000  0.80217000  0.68110000  1.0
  N  N5  1  0.56288000  0.71337000  0.39099000  1.0
  N  N6  1  0.25762000  0.69669000  0.83736000  1.0
  N  N7  1  0.24699000  0.71602000  0.94569000  1.0
  N  N8  1  0.30101000  0.39503000  0.75604000  1.0
  N  N9  1  0.19909000  0.02954000  0.81876000  1.0
  N  N10  1  0.28737000  0.43693000  0.10850000  1.0
  N  N11  1  0.69673000  0.25772000  0.33739000  1.0
  N  N12  1  0.71624000  0.24618000  0.44574000  1.0
  N  N13  1  0.39514000  0.30156000  0.25596000  1.0
  N  N14  1  0.03009000  0.19783000  0.31889000  1.0
  N  N15  1  0.43712000  0.28663000  0.60901000  1.0
  N  N16  1  0.74238000  0.30332000  0.16264000  1.0
  N  N17  1  0.75301000  0.28398000  0.05431000  1.0
  N  N18  1  0.69899000  0.60497000  0.24396000  1.0
  N  N19  1  0.80091000  0.97046000  0.18124000  1.0
  N  N20  1  0.71263000  0.56307000  0.89150000  1.0
  O  O1  1  0.87582000  0.80475000  0.82518000  1.0
  O  O2  1  0.85066000  0.67421000  0.85795000  1.0
  O  O3  1  0.96578000  0.80414000  0.13501000  1.0
  O  O4  1  0.85927000  0.74076000  0.13440000  1.0
  O  O5  1  0.84172000  0.67485000  0.69724000  1.0
  O  O6  1  0.79962000  0.55867000  0.74098000  1.0
  O  O7  1  0.15909000  0.31984000  0.71032000  1.0
  O  O8  1  0.22041000  0.37520000  0.61938000  1.0
  O  O9  1  0.19557000  0.12473000  0.67421000  1.0
  O  O10  1  0.32863000  0.14585000  0.64374000  1.0
  O  O11  1  0.19947000  0.03380000  0.36327000  1.0
  O  O12  1  0.25839000  0.14297000  0.36692000  1.0
  O  O13  1  0.32302000  0.15792000  0.80757000  1.0
  O  O14  1  0.43795000  0.19883000  0.75888000  1.0
  O  O15  1  0.67991000  0.84184000  0.78792000  1.0
  O  O16  1  0.62822000  0.77963000  0.88007000  1.0
  O  O17  1  0.12418000  0.19525000  0.17482000  1.0
  O  O18  1  0.14934000  0.32579000  0.14205000  1.0
  O  O19  1  0.03422000  0.19586000  0.86499000  1.0
  O  O20  1  0.14073000  0.25924000  0.86560000  1.0
  O  O21  1  0.15828000  0.32515000  0.30276000  1.0
  O  O22  1  0.20038000  0.44133000  0.25902000  1.0
  O  O23  1  0.84091000  0.68016000  0.28968000  1.0
  O  O24  1  0.77959000  0.62480000  0.38062000  1.0
  O  O25  1  0.80443000  0.87527000  0.32579000  1.0
  O  O26  1  0.67137000  0.85415000  0.35626000  1.0
  O  O27  1  0.80053000  0.96620000  0.63673000  1.0
  O  O28  1  0.74161000  0.85703000  0.63308000  1.0
  O  O29  1  0.67698000  0.84208000  0.19242000  1.0
  O  O30  1  0.56205000  0.80117000  0.24112000  1.0
  O  O31  1  0.32009000  0.15817000  0.21208000  1.0
  O  O32  1  0.37178000  0.22037000  0.11993000  1.0
