# generated using pymatgen
data_CuH6C6(NO)2
_symmetry_space_group_name_H-M   'P 1'
_cell_length_a   14.13042254
_cell_length_b   14.15628000
_cell_length_c   14.17725000
_cell_angle_alpha   69.90048000
_cell_angle_beta   69.97249611
_cell_angle_gamma   108.19288270
_symmetry_Int_Tables_number   1
_chemical_formula_structural   CuH6C6(NO)2
_chemical_formula_sum   'Cu4 H24 C24 N8 O8'
_cell_volume   2185.04588472
_cell_formula_units_Z   4
loop_
 _symmetry_equiv_pos_site_id
 _symmetry_equiv_pos_as_xyz
  1  'x, y, z'
loop_
 _atom_site_type_symbol
 _atom_site_label
 _atom_site_symmetry_multiplicity
 _atom_site_fract_x
 _atom_site_fract_y
 _atom_site_fract_z
 _atom_site_occupancy
  Cu  Cu0  1  0.89964000  0.79484000  0.89561000  1
  Cu  Cu1  1  0.69063000  0.79521000  0.10452000  1
  Cu  Cu2  1  0.54505000  0.14969000  0.39556000  1
  Cu  Cu3  1  0.54526000  0.94041000  0.60432000  1
  H  H4  1  0.93972000  0.59465000  0.95435000  1
  H  H5  1  0.81959000  0.49565000  0.96067000  1
  H  H6  1  0.85541000  0.44689000  0.06941000  1
  H  H7  1  0.54930000  0.89385000  0.04549000  1
  H  H8  1  0.45642000  0.78040000  0.03920000  1
  H  H9  1  0.51597000  0.92468000  0.93069000  1
  H  H10  1  0.64334000  0.18937000  0.15641000  1
  H  H11  1  0.52978000  0.06972000  0.17680000  1
  H  H12  1  0.67452000  0.10504000  0.09289000  1
  H  H13  1  0.34579000  0.79950000  0.84398000  1
  H  H14  1  0.24633000  0.70659000  0.82355000  1
  H  H15  1  0.19764000  0.76714000  0.90732000  1
  H  H16  1  0.54975000  0.59578000  0.34360000  1
  H  H17  1  0.45658000  0.49652000  0.32321000  1
  H  H18  1  0.51741000  0.44793000  0.40711000  1
  H  H19  1  0.93977000  0.89348000  0.65602000  1
  H  H20  1  0.81988000  0.78015000  0.67645000  1
  H  H21  1  0.85496000  0.92446000  0.59268000  1
  H  H22  1  0.34480000  0.18933000  0.45451000  1
  H  H23  1  0.24563000  0.06960000  0.46079000  1
  H  H24  1  0.19667000  0.10538000  0.56930000  1
  H  H25  1  0.64407000  0.79902000  0.54565000  1
  H  H26  1  0.53025000  0.70631000  0.53934000  1
  H  H27  1  0.67482000  0.76631000  0.43060000  1
  C  C28  1  0.77485000  0.54925000  0.08579000  1
  C  C29  1  0.85251000  0.52050000  0.01324000  1
  C  C30  1  0.63533000  0.86093000  0.91392000  1
  C  C31  1  0.53387000  0.86583000  0.98654000  1
  C  C32  1  0.61041000  0.02460000  0.27518000  1
  C  C33  1  0.61529000  0.10230000  0.16910000  1
  C  C34  1  0.29973000  0.88541000  0.72502000  1
  C  C35  1  0.27133000  0.78428000  0.83117000  1
  C  C36  1  0.63560000  0.54974000  0.22482000  1
  C  C37  1  0.53439000  0.52140000  0.33091000  1
  C  C38  1  0.77472000  0.86045000  0.77497000  1
  C  C39  1  0.85250000  0.86545000  0.66883000  1
  C  C40  1  0.29926000  0.02485000  0.58609000  1
  C  C41  1  0.27042000  0.10236000  0.51346000  1
  C  C42  1  0.61064000  0.88505000  0.41420000  1
  C  C43  1  0.61574000  0.78375000  0.48677000  1
  C  C44  1  0.67815000  0.47757000  0.20022000  1
  C  C45  1  0.63031000  0.35527000  0.27499000  1
  C  C46  1  0.67788000  0.87851000  0.79958000  1
  C  C47  1  0.63019000  0.90546000  0.72488000  1
  C  C48  1  0.62839000  0.92786000  0.29976000  1
  C  C49  1  0.65514000  0.88020000  0.22512000  1
  C  C50  1  0.22752000  0.92810000  0.70042000  1
  C  C51  1  0.10514000  0.88027000  0.77497000  1
  N  N52  1  0.78701000  0.65602000  0.04727000  1
  N  N53  1  0.70378000  0.83463000  0.95242000  1
  N  N54  1  0.58413000  0.03664000  0.36970000  1
  N  N55  1  0.40641000  0.95370000  0.63051000  1
  N  N56  1  0.70386000  0.65632000  0.13032000  1
  N  N57  1  0.78693000  0.83427000  0.86945000  1
  N  N58  1  0.40621000  0.03704000  0.54756000  1
  N  N59  1  0.58425000  0.95329000  0.45273000  1
  O  O60  1  0.67494000  0.29694000  0.24281000  1
  O  O61  1  0.53936000  0.91759000  0.75706000  1
  O  O62  1  0.66686000  0.92480000  0.12269000  1
  O  O63  1  0.04741000  0.78964000  0.87743000  1
  O  O64  1  0.53955000  0.29756000  0.37740000  1
  O  O65  1  0.67513000  0.91750000  0.62232000  1
  O  O66  1  0.04659000  0.92463000  0.74270000  1
  O  O67  1  0.66733000  0.78957000  0.25751000  1
