# generated using pymatgen
data_H3C5O2
_symmetry_space_group_name_H-M   'P 1'
_cell_length_a   9.97806667
_cell_length_b   14.94595000
_cell_length_c   25.88714477
_cell_angle_alpha   90.00000000
_cell_angle_beta   90.00000000
_cell_angle_gamma   90.00000000
_symmetry_Int_Tables_number   1
_chemical_formula_structural   H3C5O2
_chemical_formula_sum   'H36 C60 O24'
_cell_volume   3860.59353186
_cell_formula_units_Z   12
loop_
 _symmetry_equiv_pos_site_id
 _symmetry_equiv_pos_as_xyz
  1  'x, y, z'
loop_
 _atom_site_type_symbol
 _atom_site_label
 _atom_site_symmetry_multiplicity
 _atom_site_fract_x
 _atom_site_fract_y
 _atom_site_fract_z
 _atom_site_occupancy
  C  1  1  0.08385800  0.82448400  0.23514300  1
  C  2  1  0.92305700  0.76115000  0.29519700  1
  C  7  1  0.08372700  0.32375300  0.73399300  1
  C  8  1  0.92705800  0.26194900  0.79622500  1
  C  13  1  0.99783100  0.91881100  0.30686100  1
  C  14  1  0.99185800  0.92126500  0.36150300  1
  C  15  1  0.99324000  0.00186400  0.39022400  1
  C  16  1  0.99671900  0.08274800  0.36172300  1
  C  17  1  0.00037200  0.08567300  0.30704800  1
  C  18  1  0.00284200  0.00230500  0.28095300  1
  C  22  1  0.01093300  0.58560600  0.19533700  1
  C  23  1  0.01688900  0.58315700  0.14069400  1
  C  24  1  0.01546700  0.50255500  0.11197400  1
  C  25  1  0.01198100  0.42167100  0.14047100  1
  C  26  1  0.00831700  0.41874000  0.19514600  1
  C  27  1  0.00587500  0.50211200  0.22124200  1
  C  31  1  0.00655800  0.33590000  0.22268900  1
  C  32  1  0.08434000  0.26114900  0.20664100  1
  C  33  1  0.08379600  0.18008500  0.23495000  1
  C  34  1  0.00210100  0.16851700  0.27950200  1
  C  35  1  0.92427100  0.24326600  0.29552400  1
  C  36  1  0.92495100  0.32436700  0.26726400  1
  C  45  1  0.01447000  0.50302900  0.05684800  1
  C  46  1  0.09393800  0.56415600  0.02799900  1
  C  47  1  0.07653300  0.06152500  0.47374100  1
  C  48  1  0.99420300  0.00139100  0.44534800  1
  C  49  1  0.91468900  0.94025000  0.47418100  1
  C  50  1  0.93214700  0.44288500  0.02846400  1
  C  59  1  0.00798000  0.66840000  0.22288200  1
  C  60  1  0.08577100  0.74326400  0.20702700  1
  C  61  1  0.00079700  0.83601800  0.27931600  1
  C  62  1  0.92488200  0.67994500  0.26704900  1
  C  187  1  0.00503300  0.41895400  0.80653100  1
  C  188  1  0.00635800  0.42151500  0.86119500  1
  C  189  1  0.01190200  0.50212300  0.88984200  1
  C  190  1  0.01543800  0.58291500  0.86127600  1
  C  191  1  0.01019800  0.58559900  0.80661600  1
  C  192  1  0.00584700  0.50233500  0.78048700  1
  C  196  1  0.00365000  0.08543800  0.69567700  1
  C  197  1  0.00226600  0.08288400  0.64101300  1
  C  198  1  0.99668000  0.00228100  0.61236500  1
  C  199  1  0.99293900  0.92147400  0.64091600  1
  C  200  1  0.99846100  0.91880000  0.69557600  1
  C  201  1  0.00286900  0.00205700  0.72171300  1
  C  205  1  0.00155000  0.83592600  0.72294500  1
  C  206  1  0.08677400  0.82342800  0.76640700  1
  C  207  1  0.08791600  0.74222800  0.79453300  1
  C  208  1  0.00717900  0.66846600  0.77923900  1
  C  209  1  0.92190600  0.68098100  0.73579300  1
  C  210  1  0.92091200  0.76214100  0.70763200  1
  C  219  1  0.99537500  0.00252800  0.55723400  1
  C  220  1  0.07525700  0.06339900  0.52837000  1
  C  221  1  0.09494100  0.56246200  0.97333200  1
  C  222  1  0.01323300  0.50188500  0.94497000  1
  C  223  1  0.93327400  0.44103800  0.97382600  1
  C  224  1  0.91375800  0.94191500  0.52885700  1
  C  233  1  0.00402200  0.16833300  0.72304900  1
  C  234  1  0.08170300  0.24243100  0.70601000  1
  C  235  1  0.00469400  0.33605500  0.77915800  1
  C  236  1  0.92496700  0.18064100  0.76821500  1
  H  19  1  0.99776200  0.14169700  0.38161200  1
  H  20  1  0.99447300  0.00244400  0.24157800  1
  H  21  1  0.00252100  0.86243100  0.38119000  1
  H  28  1  0.01088200  0.36272400  0.12058100  1
  H  29  1  0.01423500  0.50196600  0.26061800  1
  H  30  1  0.00624600  0.64199000  0.12100800  1
  H  38  1  0.25241800  0.12315500  0.24294500  1
  H  42  1  0.85590000  0.27336300  0.36200600  1
  H  43  1  0.15260800  0.23101500  0.14015500  1
  H  44  1  0.75629100  0.38124400  0.25921500  1
  H  52  1  0.24664400  0.07512200  0.44199500  1
  H  56  1  0.84740100  0.82565600  0.45524100  1
  H  57  1  0.16138800  0.67871100  0.04694400  1
  H  58  1  0.76202800  0.42939800  0.06022500  1
  H  64  1  0.25186000  0.88189800  0.24390000  1
  H  68  1  0.85415700  0.73118300  0.36158600  1
  H  69  1  0.15473300  0.77321600  0.14063800  1
  H  70  1  0.75689800  0.62251400  0.25830400  1
  H  193  1  0.00673700  0.64184900  0.88105400  1
  H  194  1  0.00327200  0.50242800  0.74103100  1
  H  195  1  0.01807400  0.36261300  0.88073400  1
  H  202  1  0.00195200  0.86256400  0.62114200  1
  H  203  1  0.00552600  0.00195800  0.76116500  1
  H  204  1  0.99057700  0.14179500  0.62147800  1
  H  212  1  0.16032100  0.77058500  0.86059200  1
  H  216  1  0.75298300  0.62576900  0.74634300  1
  H  217  1  0.25569500  0.87863500  0.75582200  1
  H  218  1  0.84842400  0.73381900  0.64158400  1
  H  226  1  0.26441300  0.57811400  0.94142400  1
  H  230  1  0.86413800  0.32678600  0.95516400  1
  H  231  1  0.14445100  0.17763100  0.54705100  1
  H  232  1  0.74425400  0.92627200  0.56074500  1
  H  238  1  0.25352900  0.37956100  0.74075300  1
  H  242  1  0.86365300  0.23277800  0.86352400  1
  H  243  1  0.14516700  0.27159200  0.63871000  1
  H  244  1  0.75518900  0.12480200  0.76148200  1
  O  37  1  0.17402500  0.11629500  0.22023600  1
  O  39  1  0.17887500  0.27053700  0.16883800  1
  O  40  1  0.82976400  0.23377967  0.33333333  1
  O  41  1  0.83461500  0.38810400  0.28196100  1
  O  51  1  0.16961600  0.11399000  0.44971300  1
  O  53  1  0.18767600  0.61591500  0.05224800  1
  O  54  1  0.82105000  0.88843500  0.44992200  1
  O  55  1  0.83898300  0.39047700  0.05248900  1
  O  63  1  0.17429600  0.88834200  0.22072900  1
  O  65  1  0.18086500  0.73389400  0.16942300  1
  O  66  1  0.82791800  0.77044100  0.33278700  1
  O  67  1  0.83447500  0.61607500  0.28146900  1
  O  211  1  0.18454000  0.73155100  0.83143100  1
  O  213  1  0.18014900  0.88598100  0.77987700  1
  O  214  1  0.82859100  0.61838400  0.72232300  1
  O  215  1  0.82414000  0.77275200  0.67078000  1
  O  225  1  0.18632800  0.61601900  0.94915000  1
  O  227  1  0.16978700  0.11469700  0.55250200  1
  O  228  1  0.83878100  0.38971400  0.94970200  1
  O  229  1  0.82232800  0.88836100  0.55301100  1
  O  237  1  0.17436600  0.38667800  0.71846800  1
  O  239  1  0.17311400  0.23208900  0.66715300  1
  O  240  1  0.83559600  0.27221000  0.83506200  1
  O  241  1  0.83438300  0.11769100  0.78375100  1
