# generated using pymatgen
data_Cu2H26C37(NO4)2
_symmetry_space_group_name_H-M   'P 1'
_cell_length_a   9.56347000
_cell_length_b   10.75602000
_cell_length_c   10.88014000
_cell_angle_alpha   89.76351000
_cell_angle_beta   91.51953000
_cell_angle_gamma   90.26775000
_symmetry_Int_Tables_number   1
_chemical_formula_structural   Cu2H26C37(NO4)2
_chemical_formula_sum   'Cu2 H26 C37 N2 O8'
_cell_volume   1118.76947998
_cell_formula_units_Z   1
loop_
 _symmetry_equiv_pos_site_id
 _symmetry_equiv_pos_as_xyz
  1  'x, y, z'
loop_
 _atom_site_type_symbol
 _atom_site_label
 _atom_site_symmetry_multiplicity
 _atom_site_fract_x
 _atom_site_fract_y
 _atom_site_fract_z
 _atom_site_occupancy
  Cu  Cu0  1  0.35933000  0.50002000  0.50001000  1
  Cu  Cu1  1  0.64067000  0.49998000  0.49999000  1
  H  H2  1  0.14764000  0.37929000  0.79980000  1
  H  H3  1  0.87126000  0.69204000  0.45899000  1
  H  H4  1  0.99945000  0.20791000  0.87613000  1
  H  H5  1  0.12810000  0.69200000  0.45832000  1
  H  H6  1  0.11678000  0.28294000  0.36970000  1
  H  H7  1  0.12432000  0.19912000  0.52166000  1
  H  H8  1  0.86657000  0.27898000  0.37362000  1
  H  H9  1  0.87555000  0.19869000  0.52664000  1
  H  H10  1  0.75796000  0.24962000  0.93931000  1
  H  H11  1  0.81168000  0.63672000  0.84664000  1
  H  H12  1  0.05302000  0.59358000  0.78402000  1
  H  H13  1  0.85635000  0.62627000  0.20547000  1
  H  H14  1  0.71043000  0.44348000  0.12425000  1
  H  H15  1  0.29021000  0.55902000  0.87605000  1
  H  H16  1  0.18339000  0.36435000  0.14130000  1
  H  H17  1  0.94356000  0.40928000  0.20594000  1
  H  H18  1  0.51436000  0.19017000  0.75631000  1
  H  H19  1  0.63202000  0.06578000  0.79761000  1
  H  H20  1  0.69190000  0.19127000  0.70271000  1
  H  H21  1  0.01121000  0.79895000  0.14218000  1
  H  H22  1  0.25118000  0.75523000  0.07578000  1
  H  H23  1  0.58752000  0.88115000  0.68681000  1
  H  H24  1  0.25687000  0.10728000  0.34696000  1
  H  H25  1  0.38081000  0.11221000  0.21644000  1
  H  H26  1  0.26017000  0.88480000  0.34451000  1
  H  H27  1  0.38603000  0.88952000  0.21491000  1
  C  C28  1  0.50052000  0.73723000  0.50012000  1
  C  C29  1  0.01122000  0.48476000  0.17894000  1
  C  C30  1  0.96207000  0.60696000  0.17836000  1
  C  C31  1  0.50230000  0.50052000  0.73779000  1
  C  C32  1  0.04951000  0.70442000  0.14300000  1
  C  C33  1  0.18568000  0.67964000  0.10681000  1
  C  C34  1  0.23574000  0.55720000  0.10773000  1
  C  C35  1  0.47492000  0.93639000  0.39374000  1
  C  C36  1  0.50404000  0.87019000  0.50112000  1
  C  C37  1  0.55398000  0.93337000  0.60591000  1
  C  C38  1  0.55340000  0.06395000  0.60800000  1
  C  C39  1  0.04152000  0.39795000  0.82614000  1
  C  C40  1  0.50237000  0.12913000  0.50292000  1
  C  C41  1  0.47382000  0.06406000  0.39462000  1
  C  C42  1  0.35234000  0.06963000  0.30568000  1
  C  C43  1  0.49995000  0.26264000  0.50003000  1
  C  C44  1  0.35446000  0.92827000  0.30443000  1
  C  C45  1  0.92668000  0.39521000  0.52995000  1
  C  C46  1  0.92578000  0.60634000  0.47900000  1
  C  C47  1  0.07409000  0.60631000  0.47868000  1
  C  C48  1  0.07386000  0.39514000  0.52924000  1
  C  C49  1  0.07594000  0.27374000  0.46399000  1
  C  C50  1  0.61830000  0.46921000  0.07029000  1
  C  C51  1  0.91768000  0.27288000  0.46637000  1
  C  C52  1  0.49779000  0.49988000  0.26224000  1
  C  C53  1  0.95774000  0.30107000  0.86866000  1
  C  C54  1  0.82074000  0.32471000  0.90317000  1
  C  C55  1  0.76587000  0.44528000  0.89320000  1
  C  C56  1  0.85100000  0.54249000  0.85125000  1
  C  C57  1  0.98810000  0.51855000  0.81707000  1
  C  C58  1  0.60053000  0.13140000  0.72292000  1
  C  C59  1  0.49415000  0.49865000  0.12827000  1
  C  C60  1  0.37363000  0.52950000  0.05675000  1
  C  C61  1  0.38235000  0.53282000  0.92986000  1
  C  C62  1  0.50640000  0.50283000  0.87179000  1
  C  C63  1  0.62726000  0.47257000  0.94343000  1
  C  C64  1  0.14740000  0.45965000  0.14322000  1
  N  N65  1  0.85207000  0.49907000  0.49921000  1
  N  N66  1  0.14798000  0.49911000  0.49921000  1
  O  O67  1  0.38119000  0.68036000  0.50000000  1
  O  O68  1  0.61877000  0.68032000  0.49999000  1
  O  O69  1  0.38121000  0.50001000  0.68036000  1
  O  O70  1  0.61879000  0.49997000  0.68035000  1
  O  O71  1  0.38123000  0.31968000  0.50001000  1
  O  O72  1  0.61881000  0.31964000  0.50000000  1
  O  O73  1  0.38121000  0.50003000  0.31965000  1
  O  O74  1  0.61879000  0.49999000  0.31964000  1
