# generated using pymatgen
data_KLa3H10(C6O5)5
_symmetry_space_group_name_H-M   'P 1'
_cell_length_a   10.78861000
_cell_length_b   16.65290000
_cell_length_c   17.61787000
_cell_angle_alpha   113.94921000
_cell_angle_beta   92.25135000
_cell_angle_gamma   99.77135000
_symmetry_Int_Tables_number   1
_chemical_formula_structural   KLa3H10(C6O5)5
_chemical_formula_sum   'K2 La6 H20 C60 O50'
_cell_volume   2830.14185918
_cell_formula_units_Z   2
loop_
 _symmetry_equiv_pos_site_id
 _symmetry_equiv_pos_as_xyz
  1  'x, y, z'
loop_
 _atom_site_type_symbol
 _atom_site_label
 _atom_site_symmetry_multiplicity
 _atom_site_fract_x
 _atom_site_fract_y
 _atom_site_fract_z
 _atom_site_occupancy
  K  K1  1  0.73223000  0.23484000  0.99202000  1.0
  K  K2  1  0.26777000  0.76516000  0.00798000  1.0
  La  La1  1  0.08407000  0.14520000  0.01636000  1.0
  La  La2  1  0.36967000  0.34093000  0.99555000  1.0
  La  La3  1  0.43518000  0.87052000  0.42200000  1.0
  La  La4  1  0.91593000  0.85479000  0.98363000  1.0
  La  La5  1  0.63033000  0.65907000  0.00445000  1.0
  La  La6  1  0.56482000  0.12948000  0.57800000  1.0
  H  H1  1  0.12163000  0.98538000  0.81364000  1.0
  H  H2  1  0.07113000  0.45149000  0.86636000  1.0
  H  H3  1  0.85446000  0.51983000  0.87582000  1.0
  H  H4  1  0.37514000  0.04911000  0.14245000  1.0
  H  H5  1  0.12246000  0.86789000  0.65008000  1.0
  H  H6  1  0.79670000  0.78400000  0.73860000  1.0
  H  H7  1  0.58290000  0.96931000  0.12524000  1.0
  H  H8  1  0.19343000  0.60922000  0.39790000  1.0
  H  H9  1  0.64313000  0.76910000  0.60139000  1.0
  H  H10  1  0.06210000  0.43375000  0.31855000  1.0
  H  H11  1  0.87837000  0.01462000  0.18636000  1.0
  H  H12  1  0.92887000  0.54851000  0.13364000  1.0
  H  H13  1  0.14554000  0.48017000  0.12417000  1.0
  H  H14  1  0.62486000  0.95089000  0.85755000  1.0
  H  H15  1  0.87754000  0.13211000  0.34992000  1.0
  H  H16  1  0.20330000  0.21600000  0.26140000  1.0
  H  H17  1  0.41710000  0.03069000  0.87475000  1.0
  H  H18  1  0.80658000  0.39078000  0.60209000  1.0
  H  H19  1  0.35687000  0.23090000  0.39861000  1.0
  H  H20  1  0.93790000  0.56624000  0.68144000  1.0
  C  C1  1  0.41580000  0.19340000  0.08034000  1.0
  C  C2  1  0.49236000  0.13469000  0.09483000  1.0
  C  C3  1  0.25211000  0.98314000  0.64729000  1.0
  C  C4  1  0.20408000  0.42460000  0.23155000  1.0
  C  C5  1  0.66119000  0.43388000  0.95380000  1.0
  C  C6  1  0.24907000  0.07756000  0.77775000  1.0
  C  C7  1  0.78581000  0.05876000  0.05566000  1.0
  C  C8  1  0.96443000  0.37080000  0.92296000  1.0
  C  C9  1  0.65960000  0.07105000  0.08174000  1.0
  C  C10  1  0.04785000  0.31817000  0.94257000  1.0
  C  C11  1  0.16811000  0.33832000  0.15820000  1.0
  C  C12  1  0.78900000  0.42527000  0.92985000  1.0
  C  C13  1  0.17029000  0.99782000  0.76584000  1.0
  C  C14  1  0.28942000  0.16345000  0.85183000  1.0
  C  C15  1  0.98445000  0.43326000  0.88983000  1.0
  C  C16  1  0.89906000  0.97507000  0.85154000  1.0
  C  C17  1  0.87259000  0.46826000  0.89456000  1.0
  C  C18  1  0.62561000  0.94951000  0.61254000  1.0
  C  C19  1  0.46370000  0.06654000  0.12059000  1.0
  C  C20  1  0.69346000  0.91597000  0.66316000  1.0
  C  C21  1  0.81629000  0.92734000  0.77114000  1.0
  C  C22  1  0.17219000  0.93711000  0.68205000  1.0
  C  C23  1  0.29711000  0.95470000  0.56552000  1.0
  C  C24  1  0.77299000  0.83664000  0.72297000  1.0
  C  C25  1  0.57052000  0.02557000  0.11183000  1.0
  C  C26  1  0.21307000  0.55602000  0.34184000  1.0
  C  C27  1  0.31036000  0.56450000  0.29515000  1.0
  C  C28  1  0.69442000  0.82929000  0.65322000  1.0
  C  C29  1  0.14538000  0.46574000  0.30130000  1.0
  C  C30  1  0.41246000  0.63999000  0.30223000  1.0
  C  C31  1  0.58420000  0.80660000  0.91965000  1.0
  C  C32  1  0.50764000  0.86530000  0.90516000  1.0
  C  C33  1  0.74789000  0.01686000  0.35271000  1.0
  C  C34  1  0.79592000  0.57540000  0.76844000  1.0
  C  C35  1  0.33881000  0.56612000  0.04619000  1.0
  C  C36  1  0.75093000  0.92244000  0.22224000  1.0
  C  C37  1  0.21419000  0.94124000  0.94433000  1.0
  C  C38  1  0.03558000  0.62920000  0.07704000  1.0
  C  C39  1  0.34040000  0.92894000  0.91826000  1.0
  C  C40  1  0.95215000  0.68183000  0.05742000  1.0
  C  C41  1  0.83189000  0.66168000  0.84180000  1.0
  C  C42  1  0.21100000  0.57472000  0.07015000  1.0
  C  C43  1  0.82971000  0.00218000  0.23416000  1.0
  C  C44  1  0.71058000  0.83654000  0.14817000  1.0
  C  C45  1  0.01555000  0.56673000  0.11017000  1.0
  C  C46  1  0.10094000  0.02492000  0.14845000  1.0
  C  C47  1  0.12741000  0.53173000  0.10544000  1.0
  C  C48  1  0.37440000  0.05049000  0.38746000  1.0
  C  C49  1  0.53630000  0.93346000  0.87941000  1.0
  C  C50  1  0.30655000  0.08403000  0.33684000  1.0
  C  C51  1  0.18371000  0.07265000  0.22886000  1.0
  C  C52  1  0.82781000  0.06288000  0.31795000  1.0
  C  C53  1  0.70289000  0.04530000  0.43448000  1.0
  C  C54  1  0.22701000  0.16336000  0.27703000  1.0
  C  C55  1  0.42948000  0.97443000  0.88817000  1.0
  C  C56  1  0.78694000  0.44397000  0.65815000  1.0
  C  C57  1  0.68964000  0.43550000  0.70485000  1.0
  C  C58  1  0.30558000  0.17070000  0.34678000  1.0
  C  C59  1  0.85462000  0.53426000  0.69870000  1.0
  C  C60  1  0.58758000  0.36000000  0.69776000  1.0
  O  O1  1  0.81804000  0.98785000  0.05226000  1.0
  O  O2  1  0.46953000  0.24972000  0.05233000  1.0
  O  O3  1  0.30247000  0.18168000  0.09507000  1.0
  O  O4  1  0.92601000  0.92564000  0.88656000  1.0
  O  O5  1  0.99962000  0.26158000  0.97008000  1.0
  O  O6  1  0.61295000  0.13873000  0.07196000  1.0
  O  O7  1  0.84438000  0.36454000  0.94687000  1.0
  O  O8  1  0.85013000  0.11974000  0.03829000  1.0
  O  O9  1  0.23724000  0.17401000  0.91878000  1.0
  O  O10  1  0.60123000  0.37597000  0.97694000  1.0
  O  O11  1  0.16347000  0.33768000  0.93133000  1.0
  O  O12  1  0.93854000  0.05924000  0.87871000  1.0
  O  O13  1  0.76863000  0.97670000  0.73509000  1.0
  O  O14  1  0.37569000  0.22403000  0.84875000  1.0
  O  O15  1  0.22471000  0.32950000  0.09281000  1.0
  O  O16  1  0.37632000  0.01198000  0.54968000  1.0
  O  O17  1  0.30628000  0.48422000  0.22810000  1.0
  O  O18  1  0.61869000  0.49931000  0.95029000  1.0
  O  O19  1  0.08143000  0.27774000  0.15982000  1.0
  O  O20  1  0.30019000  0.06941000  0.70522000  1.0
  O  O21  1  0.63759000  0.03439000  0.63645000  1.0
  O  O22  1  0.26192000  0.87365000  0.51182000  1.0
  O  O23  1  0.55633000  0.88908000  0.54654000  1.0
  O  O24  1  0.38952000  0.71934000  0.35196000  1.0
  O  O25  1  0.50591000  0.62728000  0.26467000  1.0
  O  O26  1  0.18196000  0.01214000  0.94773000  1.0
  O  O27  1  0.53047000  0.75027000  0.94767000  1.0
  O  O28  1  0.69754000  0.81832000  0.90493000  1.0
  O  O29  1  0.07399000  0.07435000  0.11344000  1.0
  O  O30  1  0.00038000  0.73841000  0.02992000  1.0
  O  O31  1  0.38705000  0.86127000  0.92804000  1.0
  O  O32  1  0.15562000  0.63545000  0.05313000  1.0
  O  O33  1  0.14987000  0.88026000  0.96171000  1.0
  O  O34  1  0.76276000  0.82599000  0.08122000  1.0
  O  O35  1  0.39877000  0.62402000  0.02306000  1.0
  O  O36  1  0.83653000  0.66231000  0.06867000  1.0
  O  O37  1  0.06146000  0.94076000  0.12128000  1.0
  O  O38  1  0.23137000  0.02330000  0.26490000  1.0
  O  O39  1  0.62431000  0.77596000  0.15125000  1.0
  O  O40  1  0.77529000  0.67049000  0.90718000  1.0
  O  O41  1  0.62368000  0.98801000  0.45031000  1.0
  O  O42  1  0.69373000  0.51578000  0.77190000  1.0
  O  O43  1  0.38131000  0.50069000  0.04970000  1.0
  O  O44  1  0.91857000  0.72226000  0.84017000  1.0
  O  O45  1  0.69982000  0.93059000  0.29478000  1.0
  O  O46  1  0.36241000  0.96561000  0.36355000  1.0
  O  O47  1  0.73808000  0.12634000  0.48818000  1.0
  O  O48  1  0.44367000  0.11092000  0.45346000  1.0
  O  O49  1  0.61048000  0.28066000  0.64804000  1.0
  O  O50  1  0.49407000  0.37271000  0.73534000  1.0
