# generated using pymatgen
data_H44C53N8
_symmetry_space_group_name_H-M   'P 1'
_cell_length_a   27.65000000
_cell_length_b   37.57680000
_cell_length_c   37.57680000
_cell_angle_alpha   90.00000000
_cell_angle_beta   90.00000000
_cell_angle_gamma   90.00000000
_symmetry_Int_Tables_number   1
_chemical_formula_structural   H44C53N8
_chemical_formula_sum   'H176 C212 N32'
_cell_volume   39042.23958634
_cell_formula_units_Z   4
loop_
 _symmetry_equiv_pos_site_id
 _symmetry_equiv_pos_as_xyz
  1  'x, y, z'
loop_
 _atom_site_type_symbol
 _atom_site_label
 _atom_site_symmetry_multiplicity
 _atom_site_fract_x
 _atom_site_fract_y
 _atom_site_fract_z
 _atom_site_occupancy
  H  26  1  0.89345100  0.92654300  0.39968600  1
  H  27  1  0.95573700  0.93700500  0.35719700  1
  H  28  1  0.88630100  0.03639800  0.42131100  1
  H  29  1  0.94752700  0.04709500  0.37839300  1
  H  30  1  0.04180500  0.06768900  0.35481200  1
  H  31  1  0.10867800  0.07755600  0.39372200  1
  H  32  1  0.11337500  0.96813000  0.41753200  1
  H  33  1  0.04804600  0.95783700  0.37782700  1
  H  34  1  0.08907000  0.98491200  0.30891400  1
  H  35  1  0.11391600  0.94192200  0.26728000  1
  H  36  1  0.96888700  0.91201600  0.25069500  1
  H  37  1  0.94353100  0.95525200  0.29337800  1
  H  38  1  0.90451800  0.02044700  0.31107500  1
  H  39  1  0.04964300  0.04820400  0.29098000  1
  H  40  1  0.02297000  0.09130900  0.24863700  1
  H  45  1  0.87839100  0.06339500  0.26959200  1
  H  71  1  0.39344300  0.08112800  0.60796300  1
  H  72  1  0.45571800  0.07066700  0.65046800  1
  H  73  1  0.38627200  0.97127000  0.58637000  1
  H  74  1  0.44748700  0.96057800  0.62928500  1
  H  75  1  0.54175800  0.93996100  0.65279700  1
  H  76  1  0.60861500  0.93007700  0.61387400  1
  H  77  1  0.61330200  0.03949900  0.59002900  1
  H  78  1  0.54799300  0.04980400  0.62974300  1
  H  79  1  0.58917600  0.02266100  0.69862600  1
  H  80  1  0.61420700  0.06559900  0.74021500  1
  H  81  1  0.46928100  0.09565500  0.75701800  1
  H  82  1  0.44374000  0.05247600  0.71433200  1
  H  83  1  0.40455000  0.98733900  0.69665900  1
  H  84  1  0.54964200  0.95940700  0.71661300  1
  H  85  1  0.52294800  0.91631100  0.75895600  1
  H  90  1  0.37839800  0.94440500  0.73814500  1
  H  116  1  0.14348700  0.60795500  0.92649800  1
  H  117  1  0.20577700  0.65044200  0.93695400  1
  H  118  1  0.13637900  0.58631400  0.03635100  1
  H  119  1  0.19761300  0.62922100  0.04704000  1
  H  120  1  0.29191600  0.65281300  0.06764200  1
  H  121  1  0.35875100  0.61387900  0.07753900  1
  H  122  1  0.36336400  0.58992800  0.96814100  1
  H  123  1  0.29806500  0.62965000  0.95781800  1
  H  124  1  0.33924000  0.69854600  0.98482700  1
  H  125  1  0.36418500  0.74018100  0.94189300  1
  H  126  1  0.21919800  0.75702900  0.91203700  1
  H  127  1  0.19374500  0.71431900  0.95521800  1
  H  128  1  0.15467100  0.69657100  0.02045200  1
  H  129  1  0.29984900  0.71664000  0.04803700  1
  H  130  1  0.27329700  0.75906500  0.09109600  1
  H  135  1  0.12865000  0.73812600  0.06337500  1
  H  161  1  0.64354500  0.39956300  0.08116600  1
  H  162  1  0.70584900  0.35709000  0.07066900  1
  H  163  1  0.63625400  0.42117200  0.97131600  1
  H  164  1  0.69749400  0.37828400  0.96058600  1
  H  165  1  0.79176900  0.35480400  0.93991900  1
  H  166  1  0.85858300  0.39375700  0.93000300  1
  H  167  1  0.86340000  0.41756700  0.03942400  1
  H  168  1  0.79813400  0.37782900  0.04976600  1
  H  169  1  0.83927400  0.30898600  0.02255500  1
  H  170  1  0.86440900  0.26742100  0.06547600  1
  H  171  1  0.71955200  0.25056100  0.09568600  1
  H  172  1  0.69389900  0.29322900  0.05252000  1
  H  173  1  0.65462300  0.31090200  0.98738700  1
  H  174  1  0.79968600  0.29100400  0.95932700  1
  H  175  1  0.77295200  0.24866300  0.91623900  1
  H  180  1  0.62843100  0.26942200  0.94446400  1
  H  191  1  0.85071000  0.22978900  0.17947800  1
  H  192  1  0.87236200  0.19348800  0.22901500  1
  H  195  1  0.93647100  0.03791300  0.13690300  1
  H  196  1  0.90315400  0.03215200  0.09759500  1
  H  197  1  0.86188100  0.02649000  0.17295100  1
  H  198  1  0.87290500  0.99112600  0.14286300  1
  H  199  1  0.82736800  0.02290100  0.13318500  1
  H  202  1  0.84864800  0.10849500  0.04417800  1
  H  203  1  0.85301700  0.06416500  0.05822400  1
  H  204  1  0.94483300  0.06897700  0.05352400  1
  H  205  1  0.93793600  0.11374500  0.03937200  1
  H  206  1  0.91543300  0.07850500  0.01276200  1
  H  208  1  0.86269100  0.20538900  0.08850100  1
  H  210  1  0.87879300  0.13165500  0.25252000  1
  H  221  1  0.35008100  0.77813500  0.82822700  1
  H  222  1  0.37200400  0.81437000  0.77870200  1
  H  225  1  0.43688300  0.96976400  0.87087300  1
  H  226  1  0.40351600  0.97561600  0.91014200  1
  H  227  1  0.36242700  0.98136400  0.83473900  1
  H  228  1  0.37353700  0.01670600  0.86483500  1
  H  229  1  0.32784200  0.98503700  0.87446100  1
  H  232  1  0.34867700  0.89939100  0.96354200  1
  H  233  1  0.35322700  0.94371100  0.94949900  1
  H  234  1  0.44501700  0.93870800  0.95422800  1
  H  235  1  0.43794200  0.89395100  0.96837200  1
  H  236  1  0.41555900  0.92923600  0.99498200  1
  H  238  1  0.36189500  0.80235700  0.91932300  1
  H  240  1  0.37839800  0.87609700  0.75534400  1
  H  251  1  0.09950500  0.82833400  0.22939500  1
  H  252  1  0.12189700  0.77877100  0.19337300  1
  H  255  1  0.18788200  0.87072700  0.03807500  1
  H  256  1  0.15444100  0.90992900  0.03200200  1
  H  257  1  0.11362400  0.83444600  0.02625000  1
  H  258  1  0.12489800  0.86449200  0.99089200  1
  H  259  1  0.07894300  0.87410400  0.02235800  1
  H  262  1  0.09891900  0.96342200  0.10789700  1
  H  263  1  0.10382000  0.94929100  0.06362400  1
  H  264  1  0.19556400  0.95413700  0.06897900  1
  H  265  1  0.18813400  0.96836200  0.11367800  1
  H  266  1  0.16595000  0.99487500  0.07825500  1
  H  268  1  0.11145800  0.91936600  0.20511900  1
  H  270  1  0.12911500  0.75519300  0.13157300  1
  H  281  1  0.60043800  0.17953300  0.77800500  1
  H  282  1  0.62222800  0.22901500  0.81434100  1
  H  285  1  0.68648200  0.13665800  0.96975100  1
  H  286  1  0.65308200  0.09738700  0.97550200  1
  H  287  1  0.61200000  0.17278900  0.98128200  1
  H  288  1  0.62300600  0.14264600  0.01660400  1
  H  289  1  0.57739600  0.13306700  0.98485600  1
  H  292  1  0.59848900  0.04408000  0.89911900  1
  H  293  1  0.60290500  0.05806600  0.94346300  1
  H  294  1  0.69471300  0.05336400  0.93859600  1
  H  295  1  0.68777300  0.03927800  0.89381000  1
  H  296  1  0.66529900  0.01261800  0.92902400  1
  H  298  1  0.61251800  0.08859700  0.80217100  1
  H  300  1  0.62836200  0.25230000  0.87613700  1
  H  311  1  0.74825400  0.00978000  0.56643800  1
  H  312  1  0.82138900  0.01086300  0.53347600  1
  H  315  1  0.73320900  0.94771100  0.37024200  1
  H  316  1  0.68331300  0.91925900  0.37485100  1
  H  317  1  0.73614900  0.87281100  0.40295900  1
  H  318  1  0.78714000  0.90087300  0.39635100  1
  H  319  1  0.75475600  0.88417400  0.35926500  1
  H  322  1  0.59764600  0.91950400  0.45437900  1
  H  323  1  0.62637700  0.90034600  0.41752100  1
  H  324  1  0.58413100  0.97607100  0.42165900  1
  H  325  1  0.55823600  0.93937300  0.39897800  1
  H  326  1  0.61300600  0.95822000  0.38344200  1
  H  328  1  0.63576500  0.00045300  0.53204900  1
  H  330  1  0.86353000  0.00505400  0.47864900  1
  H  341  1  0.24834400  0.99793000  0.44118200  1
  H  342  1  0.32143200  0.99682100  0.47418700  1
  H  345  1  0.23303700  0.05974900  0.63744200  1
  H  346  1  0.18317800  0.08823400  0.63283000  1
  H  347  1  0.23610900  0.13469000  0.60482600  1
  H  348  1  0.28706000  0.10659100  0.61144700  1
  H  349  1  0.25462600  0.12326200  0.64852300  1
  H  352  1  0.09755600  0.08800700  0.55327500  1
  H  353  1  0.12624900  0.10715300  0.59015700  1
  H  354  1  0.08410200  0.03140200  0.58594500  1
  H  355  1  0.05814700  0.06806100  0.60865000  1
  H  356  1  0.11293400  0.04924000  0.62418400  1
  H  358  1  0.13579800  0.00725200  0.47556000  1
  H  360  1  0.36362100  0.00273900  0.52892800  1
  H  371  1  0.99829700  0.44120900  0.00973900  1
  H  372  1  0.07141300  0.47418100  0.01084400  1
  H  375  1  0.98322300  0.63740200  0.94768700  1
  H  376  1  0.93331700  0.63279500  0.91924900  1
  H  377  1  0.98613500  0.60469800  0.87278100  1
  H  378  1  0.03714000  0.61130300  0.90083300  1
  H  379  1  0.00474400  0.64839000  0.88414700  1
  H  382  1  0.84767200  0.55325100  0.91946200  1
  H  383  1  0.87639500  0.59012300  0.90031700  1
  H  384  1  0.83416000  0.58594700  0.97604500  1
  H  385  1  0.80825000  0.60863900  0.93936000  1
  H  386  1  0.86302100  0.62417600  0.95820600  1
  H  388  1  0.88589200  0.47555200  0.00048300  1
  H  390  1  0.11354000  0.52898600  0.00502600  1
  H  401  1  0.49835100  0.56632100  0.99786400  1
  H  402  1  0.57146900  0.53334600  0.99681800  1
  H  405  1  0.48315400  0.37016200  0.05998800  1
  H  406  1  0.43325900  0.37479500  0.08843400  1
  H  407  1  0.48611600  0.40288200  0.13488600  1
  H  408  1  0.53710300  0.39624500  0.10682700  1
  H  409  1  0.50468000  0.35917700  0.12352800  1
  H  412  1  0.34762800  0.45434200  0.08812200  1
  H  413  1  0.37632600  0.41748100  0.10730400  1
  H  414  1  0.33416700  0.42161400  0.03155200  1
  H  415  1  0.30821800  0.39894600  0.06823600  1
  H  416  1  0.36300600  0.38339400  0.04942800  1
  H  418  1  0.38591700  0.53200700  0.00711400  1
  H  420  1  0.61359500  0.47854800  0.00269900  1
  C  1  1  0.94798300  0.08294200  0.25618600  1
  C  2  1  0.99764300  0.07710500  0.26254200  1
  C  3  1  0.01324600  0.05181600  0.28787700  1
  C  4  1  0.98022100  0.03159000  0.30871200  1
  C  5  1  0.93050000  0.03611000  0.29976000  1
  C  6  1  0.91463400  0.06138500  0.27473600  1
  C  7  1  0.99728500  0.00242000  0.33457600  1
  C  8  1  0.01346000  0.97312000  0.30857600  1
  C  9  1  0.97979800  0.95214400  0.28910400  1
  C  10  1  0.99461900  0.92674600  0.26361500  1
  C  11  1  0.04392400  0.92223200  0.25501300  1
  C  12  1  0.07780900  0.94392900  0.27288700  1
  C  13  1  0.06276700  0.96905600  0.29828500  1
  C  14  1  0.03854100  0.01137500  0.36052300  1
  C  15  1  0.95721200  0.99347600  0.36150000  1
  C  16  1  0.94067700  0.95856300  0.36942800  1
  C  17  1  0.90426800  0.95218100  0.39499900  1
  C  18  1  0.88380500  0.98032100  0.41477800  1
  C  19  1  0.90045300  0.01516200  0.40782100  1
  C  20  1  0.93654000  0.02136800  0.38219900  1
  C  21  1  0.05682200  0.04611600  0.36704300  1
  C  22  1  0.09590800  0.05219200  0.39047800  1
  C  23  1  0.11698200  0.02393200  0.40970500  1
  C  24  1  0.09831300  0.98938800  0.40458800  1
  C  25  1  0.05982000  0.98346700  0.38089800  1
  C  46  1  0.44796400  0.92473900  0.75145400  1
  C  47  1  0.49762800  0.93054300  0.74507500  1
  C  48  1  0.51324500  0.95582700  0.71973700  1
  C  49  1  0.48023200  0.97609800  0.69893700  1
  C  50  1  0.43051800  0.97163500  0.70793700  1
  C  51  1  0.41463700  0.94636100  0.73295600  1
  C  52  1  0.49729900  0.00525300  0.67305900  1
  C  53  1  0.51359500  0.03454200  0.69903300  1
  C  54  1  0.48002200  0.05554500  0.71856400  1
  C  55  1  0.49495500  0.08091900  0.74404800  1
  C  56  1  0.54429300  0.08538700  0.75259300  1
  C  57  1  0.57808000  0.06364800  0.73466700  1
  C  58  1  0.56292300  0.03853900  0.70929200  1
  C  59  1  0.53851000  0.99627300  0.64708100  1
  C  60  1  0.45720100  0.01419900  0.64616000  1
  C  61  1  0.44063000  0.04910900  0.63825600  1
  C  62  1  0.40422100  0.05548800  0.61267900  1
  C  63  1  0.38378300  0.02735100  0.59288200  1
  C  64  1  0.40040900  0.99250700  0.59986300  1
  C  65  1  0.43649600  0.98630400  0.62548200  1
  C  66  1  0.55677100  0.96152800  0.64055800  1
  C  67  1  0.59584900  0.95544400  0.61711500  1
  C  68  1  0.61693400  0.98370100  0.59789300  1
  C  69  1  0.59826100  0.01824600  0.60299200  1
  C  70  1  0.55976900  0.02417200  0.62668200  1
  C  91  1  0.19828900  0.75150700  0.08283800  1
  C  92  1  0.24793200  0.74513900  0.07694900  1
  C  93  1  0.26346100  0.71975900  0.05168200  1
  C  94  1  0.23039500  0.69888400  0.03153200  1
  C  95  1  0.18069300  0.70789500  0.03607500  1
  C  96  1  0.16488100  0.73294000  0.06134900  1
  C  97  1  0.24740300  0.67301200  0.00235900  1
  C  98  1  0.26363000  0.69896900  0.97303500  1
  C  99  1  0.23002300  0.71854000  0.95210200  1
  C  100  1  0.24490100  0.74404500  0.92673500  1
  C  101  1  0.29422700  0.75257900  0.92221100  1
  C  102  1  0.32806400  0.73462100  0.94388100  1
  C  103  1  0.31295600  0.70922000  0.96898200  1
  C  104  1  0.28861700  0.64703500  0.01133500  1
  C  105  1  0.20727700  0.64613100  0.99342200  1
  C  106  1  0.19072300  0.63820800  0.95851200  1
  C  107  1  0.15428400  0.61265800  0.95213600  1
  C  108  1  0.13385000  0.59286100  0.98027300  1
  C  109  1  0.15051200  0.59981200  0.01511400  1
  C  110  1  0.18660600  0.62542900  0.02131600  1
  C  111  1  0.30690400  0.64054500  0.04608000  1
  C  112  1  0.34596900  0.61709400  0.05217500  1
  C  113  1  0.36702700  0.59784000  0.02393000  1
  C  114  1  0.34833900  0.60291800  0.98938500  1
  C  115  1  0.30985600  0.62661100  0.98344800  1
  C  136  1  0.69797500  0.25612000  0.92475200  1
  C  137  1  0.74764300  0.26252800  0.93050300  1
  C  138  1  0.76328400  0.28786100  0.95578200  1
  C  139  1  0.73029000  0.30864500  0.97608700  1
  C  140  1  0.68057600  0.29962400  0.97166700  1
  C  141  1  0.66466600  0.27461900  0.94639100  1
  C  142  1  0.74738600  0.33452300  0.00523200  1
  C  143  1  0.76370800  0.30854200  0.03450900  1
  C  144  1  0.73018900  0.28901100  0.05555300  1
  C  145  1  0.74519000  0.26352600  0.08090700  1
  C  146  1  0.79453900  0.25500800  0.08533600  1
  C  147  1  0.82827200  0.27294800  0.06355800  1
  C  148  1  0.81305700  0.29832300  0.03846700  1
  C  149  1  0.78856500  0.36052600  0.99623300  1
  C  150  1  0.70728100  0.36141200  0.01420200  1
  C  151  1  0.69075300  0.36931600  0.04912200  1
  C  152  1  0.65432200  0.39486900  0.05552100  1
  C  153  1  0.63383000  0.41465000  0.02739600  1
  C  154  1  0.65043100  0.40768800  0.99254400  1
  C  155  1  0.68653200  0.38208400  0.98632000  1
  C  156  1  0.80679300  0.36705100  0.96148000  1
  C  157  1  0.84584200  0.39051500  0.95537500  1
  C  158  1  0.86693700  0.40975300  0.98361600  1
  C  159  1  0.84834100  0.40460100  0.01817800  1
  C  160  1  0.80984100  0.38092400  0.02412100  1
  C  181  1  0.85584900  0.18927200  0.14025200  1
  C  182  1  0.86766100  0.15279400  0.13564900  1
  C  183  1  0.88135700  0.13127000  0.16507900  1
  C  184  1  0.88390700  0.14575600  0.19987100  1
  C  185  1  0.87142900  0.18204500  0.20427100  1
  C  186  1  0.85816000  0.20344400  0.17506200  1
  C  188  1  0.88930600  0.08061200  0.12603500  1
  C  189  1  0.87579500  0.10216300  0.09659700  1
  C  193  1  0.90095500  0.04202500  0.12481200  1
  C  194  1  0.86320100  0.01923400  0.14482700  1
  C  200  1  0.87129900  0.08990900  0.05916700  1
  C  201  1  0.92071300  0.08760300  0.04008900  1
  C  207  1  0.84689400  0.21169700  0.11143100  1
  C  209  1  0.89410600  0.12476800  0.22953200  1
  C  211  1  0.35550000  0.81862300  0.86746200  1
  C  212  1  0.36754100  0.85505500  0.87207600  1
  C  213  1  0.38136000  0.87654400  0.84265100  1
  C  214  1  0.38384100  0.86206200  0.80785300  1
  C  215  1  0.37116500  0.82580500  0.80345400  1
  C  216  1  0.35773000  0.80444700  0.83265000  1
  C  218  1  0.38950800  0.92718200  0.88169900  1
  C  219  1  0.37587700  0.90566600  0.91113200  1
  C  223  1  0.40132400  0.96574000  0.88292600  1
  C  224  1  0.36371800  0.98861900  0.86286300  1
  C  230  1  0.37140700  0.91792900  0.94856000  1
  C  231  1  0.42081800  0.92013000  0.96765400  1
  C  237  1  0.34612900  0.79633800  0.89628800  1
  C  239  1  0.39401800  0.88309400  0.77818600  1
  C  241  1  0.10520800  0.86749900  0.18885800  1
  C  242  1  0.11758000  0.87205700  0.15248000  1
  C  243  1  0.13165900  0.84260800  0.13111500  1
  C  244  1  0.13405100  0.80784500  0.14567900  1
  C  245  1  0.12106600  0.80349100  0.18187800  1
  C  246  1  0.10737900  0.83271700  0.20311200  1
  C  248  1  0.14015900  0.88157100  0.08044100  1
  C  249  1  0.12627100  0.91102800  0.10183600  1
  C  253  1  0.15225900  0.88273200  0.04192800  1
  C  254  1  0.11487900  0.86256000  0.01894200  1
  C  260  1  0.12181500  0.94842600  0.08948000  1
  C  261  1  0.17120100  0.96757100  0.08743500  1
  C  267  1  0.09550000  0.89636200  0.21101900  1
  C  269  1  0.14470500  0.77814300  0.12486800  1
  C  271  1  0.60557700  0.14026200  0.81847900  1
  C  272  1  0.61747200  0.13560800  0.85493300  1
  C  273  1  0.63123400  0.16500500  0.87648000  1
  C  274  1  0.63378000  0.19981400  0.86203800  1
  C  275  1  0.62129500  0.20425700  0.82575200  1
  C  276  1  0.60792500  0.17508400  0.80433700  1
  C  278  1  0.63921900  0.12589300  0.92708300  1
  C  279  1  0.62564600  0.09648900  0.90550600  1
  C  283  1  0.65093000  0.12461600  0.96565800  1
  C  284  1  0.61326300  0.14465600  0.98850400  1
  C  290  1  0.62116100  0.05904300  0.91771100  1
  C  291  1  0.67057200  0.03995800  0.91996200  1
  C  297  1  0.59642400  0.11148300  0.79605600  1
  C  299  1  0.64397500  0.22944900  0.88310700  1
  C  301  1  0.70596400  0.98349900  0.52727800  1
  C  302  1  0.70816300  0.96918400  0.49244300  1
  C  303  1  0.75187800  0.96997200  0.47247800  1
  C  304  1  0.79461500  0.98537500  0.48683300  1
  C  305  1  0.79188800  0.99897600  0.52200100  1
  C  306  1  0.74866600  0.99815400  0.54176600  1
  C  308  1  0.71081800  0.94127600  0.42348200  1
  C  309  1  0.66731700  0.94048800  0.44358000  1
  C  313  1  0.71756700  0.92689700  0.38698600  1
  C  314  1  0.75117200  0.89403400  0.38648300  1
  C  320  1  0.62047100  0.92552100  0.43136800  1
  C  321  1  0.59228600  0.95156900  0.40723000  1
  C  327  1  0.66218900  0.98785500  0.54493200  1
  C  329  1  0.83775500  0.99008000  0.46772000  1
  C  331  1  0.20600800  0.02418700  0.48033100  1
  C  332  1  0.20816500  0.03846200  0.51518500  1
  C  333  1  0.25186100  0.03765800  0.53517400  1
  C  334  1  0.29463400  0.02230900  0.52081900  1
  C  335  1  0.29192800  0.00871700  0.48564300  1
  C  336  1  0.24873800  0.00958500  0.46584100  1
  C  338  1  0.21073700  0.06626400  0.58419100  1
  C  339  1  0.16725300  0.06706400  0.56407500  1
  C  343  1  0.21744300  0.08059300  0.62071100  1
  C  344  1  0.25108200  0.11343800  0.62129100  1
  C  350  1  0.12037800  0.08198400  0.57628700  1
  C  351  1  0.09221700  0.05589700  0.60039500  1
  C  357  1  0.16224700  0.01980500  0.46266100  1
  C  359  1  0.33767600  0.01743300  0.54001200  1
  C  361  1  0.95601900  0.48033400  0.98339000  1
  C  362  1  0.95821000  0.51518000  0.96910700  1
  C  363  1  0.00191800  0.53515800  0.96991300  1
  C  364  1  0.04465600  0.52080300  0.98531100  1
  C  365  1  0.04193300  0.48563300  0.99891000  1
  C  366  1  0.99871700  0.46585400  0.99806100  1
  C  368  1  0.96083600  0.58415900  0.94124900  1
  C  369  1  0.91734600  0.56405100  0.94044500  1
  C  373  1  0.96757400  0.62065700  0.92687300  1
  C  374  1  0.00116900  0.62117100  0.89400200  1
  C  380  1  0.87049300  0.57626300  0.92548900  1
  C  381  1  0.84230800  0.60038700  0.95154800  1
  C  387  1  0.91225700  0.46268200  0.98780700  1
  C  389  1  0.08776600  0.53994300  0.99007200  1
  C  391  1  0.45604700  0.52721400  0.02420800  1
  C  392  1  0.45821700  0.49237300  0.03850700  1
  C  393  1  0.50192100  0.47239300  0.03773600  1
  C  394  1  0.54467700  0.48673200  0.02234800  1
  C  395  1  0.54196100  0.52188600  0.00870900  1
  C  396  1  0.49876300  0.54168600  0.00956000  1
  C  398  1  0.46081000  0.42341300  0.06641600  1
  C  399  1  0.41732000  0.44352400  0.06718300  1
  C  403  1  0.46752700  0.38691500  0.08079900  1
  C  404  1  0.50112500  0.38639300  0.11366500  1
  C  410  1  0.37044900  0.43132500  0.08212100  1
  C  411  1  0.34228700  0.40719000  0.05606100  1
  C  417  1  0.41229300  0.54487400  0.01978100  1
  C  419  1  0.58779800  0.46759500  0.01763600  1
  N  41  1  0.84929200  0.97307200  0.43870200  1
  N  42  1  0.15583000  0.02941000  0.43008800  1
  N  43  1  0.93446400  0.10694800  0.23176300  1
  N  44  1  0.05657300  0.89797800  0.23054000  1
  N  86  1  0.34929400  0.03459200  0.56892900  1
  N  87  1  0.65577300  0.97822700  0.57749800  1
  N  88  1  0.43444900  0.90077200  0.77591300  1
  N  89  1  0.55704900  0.10962400  0.77706800  1
  N  131  1  0.09933800  0.56893100  0.97302900  1
  N  132  1  0.40584500  0.57743100  0.02943600  1
  N  133  1  0.18485000  0.77598200  0.10680200  1
  N  134  1  0.30694700  0.77708400  0.89799900  1
  N  176  1  0.59932400  0.43858000  0.03465400  1
  N  177  1  0.90577600  0.43014100  0.97811800  1
  N  178  1  0.68442700  0.23169700  0.90075900  1
  N  179  1  0.80737100  0.23053500  0.10956100  1
  N  187  1  0.89125900  0.09644500  0.15855400  1
  N  190  1  0.86565300  0.13694400  0.10316800  1
  N  217  1  0.39141400  0.91134200  0.84918200  1
  N  220  1  0.36557700  0.87091000  0.90455600  1
  N  247  1  0.14199800  0.84908600  0.09635100  1
  N  250  1  0.11568000  0.90450300  0.13655300  1
  N  277  1  0.64118000  0.15843100  0.91128900  1
  N  280  1  0.61545800  0.10310800  0.87074300  1
  N  307  1  0.75036200  0.95607200  0.43911200  1
  N  310  1  0.66850000  0.95456300  0.47688200  1
  N  337  1  0.25030600  0.05150600  0.56856100  1
  N  340  1  0.16847500  0.05303900  0.53075100  1
  N  367  1  0.00039100  0.56852900  0.95603200  1
  N  370  1  0.91854000  0.53074000  0.95449700  1
  N  397  1  0.50037700  0.43902700  0.05163800  1
  N  400  1  0.41853200  0.47682700  0.05310900  1
