# generated using pymatgen
data_Na2ZnH16C28(SO6)2
_symmetry_space_group_name_H-M   'P 1'
_cell_length_a   5.15808000
_cell_length_b   25.20126000
_cell_length_c   26.80462000
_cell_angle_alpha   63.83798000
_cell_angle_beta   89.94535000
_cell_angle_gamma   89.97226000
_symmetry_Int_Tables_number   1
_chemical_formula_structural   Na2ZnH16C28(SO6)2
_chemical_formula_sum   'Na8 Zn4 H64 C112 S8 O48'
_cell_volume   3127.36693781
_cell_formula_units_Z   4
loop_
 _symmetry_equiv_pos_site_id
 _symmetry_equiv_pos_as_xyz
  1  'x, y, z'
loop_
 _atom_site_type_symbol
 _atom_site_label
 _atom_site_symmetry_multiplicity
 _atom_site_fract_x
 _atom_site_fract_y
 _atom_site_fract_z
 _atom_site_occupancy
  Na  Na0  1  0.20759000  0.35187000  0.42706000  1
  Na  Na1  1  0.79212000  0.77237000  0.45709000  1
  Na  Na2  1  0.70160000  0.64812000  0.07543000  1
  Na  Na3  1  0.28570000  0.22808000  0.04281000  1
  Na  Na4  1  0.79249000  0.64805000  0.57298000  1
  Na  Na5  1  0.20787000  0.22763000  0.54294000  1
  Na  Na6  1  0.29837000  0.35187000  0.92457000  1
  Na  Na7  1  0.71432000  0.77191000  0.95719000  1
  Zn  Zn8  1  0.24017000  0.74399000  0.54263000  1
  Zn  Zn9  1  0.73241000  0.25449000  0.95806000  1
  Zn  Zn10  1  0.75985000  0.25591000  0.45747000  1
  Zn  Zn11  1  0.26763000  0.74551000  0.04195000  1
  H  H12  1  0.12458000  0.84973000  0.56405000  1
  H  H13  1  0.27287000  0.89732000  0.62286000  1
  H  H14  1  0.61454000  0.82604000  0.73034000  1
  H  H15  1  0.47260000  0.77454000  0.67361000  1
  H  H16  1  0.29121000  0.99154000  0.62464000  1
  H  H17  1  0.14395000  0.09512000  0.56391000  1
  H  H18  1  0.48707000  0.07212000  0.66952000  1
  H  H19  1  0.61606000  0.96605000  0.72834000  1
  H  H20  1  0.69186000  0.67070000  0.42715000  1
  H  H21  1  0.78713000  0.60260000  0.38570000  1
  H  H22  1  0.07671000  0.50863000  0.45419000  1
  H  H23  1  0.97922000  0.57778000  0.49544000  1
  H  H24  1  0.76065000  0.59328000  0.30294000  1
  H  H25  1  0.63300000  0.64956000  0.20307000  1
  H  H26  1  0.95670000  0.54174000  0.23135000  1
  H  H27  1  0.06882000  0.48570000  0.33172000  1
  H  H28  1  0.62540000  0.15027000  0.93572000  1
  H  H29  1  0.77366000  0.10251000  0.87707000  1
  H  H30  1  0.11522000  0.17390000  0.76969000  1
  H  H31  1  0.97306000  0.22550000  0.82645000  1
  H  H32  1  0.79221000  0.00897000  0.87511000  1
  H  H33  1  0.64732000  0.90533000  0.93596000  1
  H  H34  1  0.98985000  0.92774000  0.83090000  1
  H  H35  1  0.11653000  0.03387000  0.77184000  1
  H  H36  1  0.19209000  0.32976000  0.07241000  1
  H  H37  1  0.28450000  0.39742000  0.11446000  1
  H  H38  1  0.57336000  0.49120000  0.04612000  1
  H  H39  1  0.48002000  0.42254000  0.00412000  1
  H  H40  1  0.25802000  0.40623000  0.19754000  1
  H  H41  1  0.13344000  0.35059000  0.29779000  1
  H  H42  1  0.45434000  0.45785000  0.26962000  1
  H  H43  1  0.56488000  0.51340000  0.16890000  1
  H  H44  1  0.87540000  0.15025000  0.43595000  1
  H  H45  1  0.72713000  0.10267000  0.37713000  1
  H  H46  1  0.38545000  0.17395000  0.26965000  1
  H  H47  1  0.52737000  0.22546000  0.32638000  1
  H  H48  1  0.70883000  0.00845000  0.37536000  1
  H  H49  1  0.85605000  0.90488000  0.43609000  1
  H  H50  1  0.51297000  0.92787000  0.33048000  1
  H  H51  1  0.38396000  0.03393000  0.27166000  1
  H  H52  1  0.30810000  0.32930000  0.57288000  1
  H  H53  1  0.21287000  0.39741000  0.61430000  1
  H  H54  1  0.92333000  0.49138000  0.54579000  1
  H  H55  1  0.02082000  0.42221000  0.50456000  1
  H  H56  1  0.23940000  0.40672000  0.69706000  1
  H  H57  1  0.36702000  0.35044000  0.79693000  1
  H  H58  1  0.04334000  0.45825000  0.76866000  1
  H  H59  1  0.93122000  0.51429000  0.66829000  1
  H  H60  1  0.37463000  0.84973000  0.06428000  1
  H  H61  1  0.22636000  0.89749000  0.12293000  1
  H  H62  1  0.88480000  0.82610000  0.23031000  1
  H  H63  1  0.02696000  0.77450000  0.17355000  1
  H  H64  1  0.20781000  0.99102000  0.12490000  1
  H  H65  1  0.35270000  0.09466000  0.06404000  1
  H  H66  1  0.01016000  0.07226000  0.16910000  1
  H  H67  1  0.88349000  0.96613000  0.22816000  1
  H  H68  1  0.80796000  0.67024000  0.92759000  1
  H  H69  1  0.71551000  0.60258000  0.88555000  1
  H  H70  1  0.42666000  0.50879000  0.95389000  1
  H  H71  1  0.52004000  0.57746000  0.99589000  1
  H  H72  1  0.74209000  0.59375000  0.80246000  1
  H  H73  1  0.86649000  0.64938000  0.70225000  1
  H  H74  1  0.54571000  0.54209000  0.73043000  1
  H  H75  1  0.43492000  0.48658000  0.83115000  1
  C  C76  1  0.68146000  0.78130000  0.57995000  1
  C  C77  1  0.79222000  0.80829000  0.61515000  1
  C  C78  1  0.01651000  0.84276000  0.60113000  1
  C  C79  1  0.10296000  0.86911000  0.63444000  1
  C  C80  1  0.95696000  0.86174000  0.68120000  1
  C  C81  1  0.72964000  0.82854000  0.69532000  1
  C  C82  1  0.64609000  0.80175000  0.66239000  1
  C  C83  1  0.96277000  0.97380000  0.68062000  1
  C  C84  1  0.11746000  0.00918000  0.63467000  1
  C  C85  1  0.03139000  0.06632000  0.59999000  1
  C  C86  1  0.80070000  0.08785000  0.61150000  1
  C  C87  1  0.65350000  0.05256000  0.65903000  1
  C  C88  1  0.73468000  0.99491000  0.69331000  1
  C  C89  1  0.70554000  0.14896000  0.57453000  1
  C  C90  1  0.24796000  0.67253000  0.48536000  1
  C  C91  1  0.32585000  0.62990000  0.46266000  1
  C  C92  1  0.55364000  0.63610000  0.43249000  1
  C  C93  1  0.61391000  0.59638000  0.41062000  1
  C  C94  1  0.44246000  0.54948000  0.42061000  1
  C  C95  1  0.21277000  0.54325000  0.44983000  1
  C  C96  1  0.15330000  0.58342000  0.47091000  1
  C  C97  1  0.42429000  0.53484000  0.32302000  1
  C  C98  1  0.58689000  0.58117000  0.28749000  1
  C  C99  1  0.51214000  0.61392000  0.23199000  1
  C  C100  1  0.28232000  0.60072000  0.21242000  1
  C  C101  1  0.12607000  0.55340000  0.24829000  1
  C  C102  1  0.19604000  0.52065000  0.30391000  1
  C  C103  1  0.19425000  0.63506000  0.15323000  1
  C  C104  1  0.18224000  0.21849000  0.92034000  1
  C  C105  1  0.29291000  0.19175000  0.88479000  1
  C  C106  1  0.51721000  0.15722000  0.89869000  1
  C  C107  1  0.60392000  0.13084000  0.86536000  1
  C  C108  1  0.45829000  0.13837000  0.81853000  1
  C  C109  1  0.23078000  0.17154000  0.80456000  1
  C  C110  1  0.14683000  0.19831000  0.83758000  1
  C  C111  1  0.46428000  0.02651000  0.81923000  1
  C  C112  1  0.61867000  0.99115000  0.86526000  1
  C  C113  1  0.53381000  0.93386000  0.89993000  1
  C  C114  1  0.30377000  0.91221000  0.88832000  1
  C  C115  1  0.15635000  0.94754000  0.84099000  1
  C  C116  1  0.23633000  0.00527000  0.80671000  1
  C  C117  1  0.20850000  0.85105000  0.92482000  1
  C  C118  1  0.74595000  0.32811000  0.01344000  1
  C  C119  1  0.82603000  0.37024000  0.03684000  1
  C  C120  1  0.05277000  0.36409000  0.06732000  1
  C  C121  1  0.11173000  0.40370000  0.08945000  1
  C  C122  1  0.94017000  0.45055000  0.07969000  1
  C  C123  1  0.71065000  0.45672000  0.05042000  1
  C  C124  1  0.65309000  0.41672000  0.02895000  1
  C  C125  1  0.92198000  0.46447000  0.17780000  1
  C  C126  1  0.08466000  0.41823000  0.21328000  1
  C  C127  1  0.01092000  0.38583000  0.26890000  1
  C  C128  1  0.78140000  0.39921000  0.28848000  1
  C  C129  1  0.62353000  0.44616000  0.25254000  1
  C  C130  1  0.69293000  0.47867000  0.19681000  1
  C  C131  1  0.69565000  0.36531000  0.34780000  1
  C  C132  1  0.31861000  0.21869000  0.42007000  1
  C  C133  1  0.20784000  0.19169000  0.38486000  1
  C  C134  1  0.98351000  0.15723000  0.39887000  1
  C  C135  1  0.89702000  0.13089000  0.36555000  1
  C  C136  1  0.04303000  0.13825000  0.31880000  1
  C  C137  1  0.27035000  0.17145000  0.30468000  1
  C  C138  1  0.35391000  0.19824000  0.33762000  1
  C  C139  1  0.03724000  0.02619000  0.31938000  1
  C  C140  1  0.88257000  0.99081000  0.36533000  1
  C  C141  1  0.96863000  0.93367000  0.40001000  1
  C  C142  1  0.19931000  0.91214000  0.38851000  1
  C  C143  1  0.34653000  0.94742000  0.34098000  1
  C  C144  1  0.26534000  0.00508000  0.30670000  1
  C  C145  1  0.29449000  0.85102000  0.42549000  1
  C  C146  1  0.75203000  0.32742000  0.51468000  1
  C  C147  1  0.67423000  0.37007000  0.53737000  1
  C  C148  1  0.44643000  0.36389000  0.56753000  1
  C  C149  1  0.38608000  0.40361000  0.58938000  1
  C  C150  1  0.55749000  0.45051000  0.57939000  1
  C  C151  1  0.78722000  0.45676000  0.55017000  1
  C  C152  1  0.84676000  0.41657000  0.52910000  1
  C  C153  1  0.57568000  0.46515000  0.67699000  1
  C  C154  1  0.41312000  0.41882000  0.71253000  1
  C  C155  1  0.48792000  0.38608000  0.76802000  1
  C  C156  1  0.71774000  0.39928000  0.78759000  1
  C  C157  1  0.87397000  0.44660000  0.75171000  1
  C  C158  1  0.80395000  0.47935000  0.69609000  1
  C  C159  1  0.80577000  0.36494000  0.84677000  1
  C  C160  1  0.81777000  0.78151000  0.07966000  1
  C  C161  1  0.70711000  0.80824000  0.11521000  1
  C  C162  1  0.48282000  0.84278000  0.10132000  1
  C  C163  1  0.39610000  0.86916000  0.13464000  1
  C  C164  1  0.54172000  0.86162000  0.18147000  1
  C  C165  1  0.76924000  0.82845000  0.19544000  1
  C  C166  1  0.85319000  0.80169000  0.16242000  1
  C  C167  1  0.53574000  0.97348000  0.18077000  1
  C  C168  1  0.38135000  0.00885000  0.13474000  1
  C  C169  1  0.46621000  0.06613000  0.10007000  1
  C  C170  1  0.69625000  0.08779000  0.11168000  1
  C  C171  1  0.84366000  0.05246000  0.15901000  1
  C  C172  1  0.76369000  0.99472000  0.19329000  1
  C  C173  1  0.79153000  0.14894000  0.07518000  1
  C  C174  1  0.25407000  0.67188000  0.98657000  1
  C  C175  1  0.17400000  0.62976000  0.96316000  1
  C  C176  1  0.94727000  0.63591000  0.93269000  1
  C  C177  1  0.88827000  0.59629000  0.91057000  1
  C  C178  1  0.05978000  0.54942000  0.92034000  1
  C  C179  1  0.28935000  0.54327000  0.94960000  1
  C  C180  1  0.34695000  0.58328000  0.97106000  1
  C  C181  1  0.07795000  0.53550000  0.82222000  1
  C  C182  1  0.91539000  0.58174000  0.78673000  1
  C  C183  1  0.98918000  0.61416000  0.73112000  1
  C  C184  1  0.21875000  0.60080000  0.71152000  1
  C  C185  1  0.37653000  0.55382000  0.74749000  1
  C  C186  1  0.30697000  0.52131000  0.80322000  1
  C  C187  1  0.30428000  0.63470000  0.65216000  1
  S  S188  1  0.05836000  0.89902000  0.72129000  1
  S  S189  1  0.51382000  0.49733000  0.39442000  1
  S  S190  1  0.56150000  0.10133000  0.77826000  1
  S  S191  1  0.01261000  0.50222000  0.10651000  1
  S  S192  1  0.94165000  0.10097000  0.27870000  1
  S  S193  1  0.48605000  0.50267000  0.60558000  1
  S  S194  1  0.43851000  0.89867000  0.22174000  1
  S  S195  1  0.98727000  0.49775000  0.89353000  1
  O  O196  1  0.80878000  0.76326000  0.54926000  1
  O  O197  1  0.43566000  0.77761000  0.58430000  1
  O  O198  1  0.50516000  0.16627000  0.58913000  1
  O  O199  1  0.84312000  0.17972000  0.53019000  1
  O  O200  1  0.91611000  0.87430000  0.77367000  1
  O  O201  1  0.34149000  0.89948000  0.71955000  1
  O  O202  1  0.41608000  0.69238000  0.50869000  1
  O  O203  1  0.79629000  0.49269000  0.39416000  1
  O  O204  1  0.35366000  0.44484000  0.42478000  1
  O  O205  1  0.35491000  0.67371000  0.11906000  1
  O  O206  1  0.97535000  0.62223000  0.14197000  1
  O  O207  1  0.01104000  0.68580000  0.48147000  1
  O  O208  1  0.31160000  0.23713000  0.95041000  1
  O  O209  1  0.93625000  0.22089000  0.91710000  1
  O  O210  1  0.00985000  0.83364000  0.90976000  1
  O  O211  1  0.34621000  0.82049000  0.96918000  1
  O  O212  1  0.42248000  0.12646000  0.72551000  1
  O  O213  1  0.84501000  0.10040000  0.78079000  1
  O  O214  1  0.91342000  0.30423000  0.99357000  1
  O  O215  1  0.29420000  0.50756000  0.10606000  1
  O  O216  1  0.84913000  0.55451000  0.07698000  1
  O  O217  1  0.85940000  0.32775000  0.38212000  1
  O  O218  1  0.47473000  0.37731000  0.35888000  1
  O  O219  1  0.50579000  0.31912000  0.01354000  1
  O  O220  1  0.19127000  0.23673000  0.45076000  1
  O  O221  1  0.56442000  0.22238000  0.41570000  1
  O  O222  1  0.49488000  0.83374000  0.41086000  1
  O  O223  1  0.15699000  0.82025000  0.46984000  1
  O  O224  1  0.08389000  0.12570000  0.22632000  1
  O  O225  1  0.65852000  0.10052000  0.28044000  1
  O  O226  1  0.58384000  0.30769000  0.49126000  1
  O  O227  1  0.20359000  0.50733000  0.60586000  1
  O  O228  1  0.64649000  0.55513000  0.57522000  1
  O  O229  1  0.64510000  0.32630000  0.88094000  1
  O  O230  1  0.02465000  0.37777000  0.85804000  1
  O  O231  1  0.98885000  0.31405000  0.51865000  1
  O  O232  1  0.68841000  0.76287000  0.04959000  1
  O  O233  1  0.06375000  0.77911000  0.08290000  1
  O  O234  1  0.99017000  0.16636000  0.09024000  1
  O  O235  1  0.65384000  0.17951000  0.03082000  1
  O  O236  1  0.57754000  0.87354000  0.27449000  1
  O  O237  1  0.15501000  0.89959000  0.21922000  1
  O  O238  1  0.08661000  0.69577000  0.00642000  1
  O  O239  1  0.70568000  0.49239000  0.89400000  1
  O  O240  1  0.15084000  0.44548000  0.92306000  1
  O  O241  1  0.14035000  0.67226000  0.61789000  1
  O  O242  1  0.52516000  0.62272000  0.64102000  1
  O  O243  1  0.49425000  0.68086000  0.98648000  1
