# generated using pymatgen
data_Cr3H35C31O13
_symmetry_space_group_name_H-M   'P 1'
_cell_length_a   11.24795000
_cell_length_b   11.28272826
_cell_length_c   18.71520000
_cell_angle_alpha   90.07786086
_cell_angle_beta   90.01524000
_cell_angle_gamma   119.89139597
_symmetry_Int_Tables_number   1
_chemical_formula_structural   Cr3H35C31O13
_chemical_formula_sum   'Cr6 H70 C62 O26'
_cell_volume   2059.14149127
_cell_formula_units_Z   2
loop_
 _symmetry_equiv_pos_site_id
 _symmetry_equiv_pos_as_xyz
  1  'x, y, z'
loop_
 _atom_site_type_symbol
 _atom_site_label
 _atom_site_symmetry_multiplicity
 _atom_site_fract_x
 _atom_site_fract_y
 _atom_site_fract_z
 _atom_site_occupancy
  C  C0  1  0.68486000  0.45160000  0.14473000  1
  C  C1  1  0.77957500  0.61345000  0.04280500  1
  C  C2  1  0.22729000  0.54552000  0.64665000  1
  C  C3  1  0.70879000  0.06350000  0.35500000  1
  C  C4  1  0.64738000  0.94064000  0.64633000  1
  C  C5  1  0.09720000  0.47728000  0.35685000  1
  C  C6  1  0.62177000  0.52080000  0.64430000  1
  C  C7  1  0.61111000  0.03876000  0.96384000  1
  C  C8  1  0.16615000  0.38654000  0.95722000  1
  C  C9  1  0.57234000  0.96120000  0.03613000  1
  C  C10  1  0.75905000  0.13682000  0.99118000  1
  C  C11  1  0.62227000  0.86316000  0.00882000  1
  C  C12  1  0.71709000  0.06006000  0.06330000  1
  C  C13  1  0.65705000  0.93992000  0.93670000  1
  C  C14  1  0.87560000  0.94074000  0.07347000  1
  C  C15  1  0.93483000  0.05926000  0.92659000  1
  C  C16  1  0.13256000  0.36554000  0.03724000  1
  C  C17  1  0.76702000  0.63446000  0.96278000  1
  C  C18  1  0.30497000  0.64658000  0.97585000  1
  C  C19  1  0.65842000  0.35340000  0.02418000  1
  C  C20  1  0.23327000  0.54840000  0.85528000  1
  C  C21  1  0.05968000  0.52964000  0.94502000  1
  C  C22  1  0.53002000  0.47034000  0.05493000  1
  C  C23  1  0.19190000  0.52646000  0.93137000  1
  C  C24  1  0.66543000  0.47354000  0.06863000  1
  C  C25  1  0.14025000  0.49530000  0.06901000  1
  C  C26  1  0.64498000  0.50470000  0.93099000  1
  C  C27  1  0.28568500  0.61603000  0.05691000  1
  C  C28  1  0.66970500  0.38397000  0.94312000  1
  C  C29  1  0.04117000  0.52910000  0.02668000  1
  C  C30  1  0.51209500  0.47091000  0.97327000  1
  C  C31  1  0.80636000  0.01202000  0.54211000  1
  C  C32  1  0.80854000  0.01588000  0.46206000  1
  C  C33  1  0.74130000  0.11456000  0.13746000  1
  C  C34  1  0.62676000  0.88542000  0.86254000  1
  C  C35  1  0.54933500  0.86495000  0.52706000  1
  C  C36  1  0.76734000  0.96380000  0.03599000  1
  C  C37  1  0.65239000  0.12522000  0.47337000  1
  C  C38  1  0.65274000  0.10924000  0.55539000  1
  C  C39  1  0.55998000  0.88352000  0.44495000  1
  C  C40  1  0.66437500  0.98355000  0.57007000  1
  C  C41  1  0.68338000  0.02344000  0.43154000  1
  C  C42  1  0.80352000  0.03620000  0.96404000  1
  C  C43  1  0.15297000  0.63104000  0.54306000  1
  C  C44  1  0.53546000  0.35528000  0.46108000  1
  C  C45  1  0.14789500  0.62755000  0.46303000  1
  C  C46  1  0.53416000  0.35948000  0.54107000  1
  C  C47  1  0.30006000  0.52128000  0.52735000  1
  C  C48  1  0.80076000  0.50992000  0.47280000  1
  C  C49  1  0.05575000  0.38138000  0.55763000  1
  C  C50  1  0.65226000  0.60294000  0.44239000  1
  C  C51  1  0.18225000  0.51870000  0.57100000  1
  C  C52  1  0.66817000  0.47872000  0.43050000  1
  C  C53  1  0.13848500  0.49371000  0.43306000  1
  C  C54  1  0.64720000  0.50200000  0.56836000  1
  C  C55  1  0.27876000  0.50986000  0.44556000  1
  C  C56  1  0.78456000  0.51276000  0.55456000  1
  C  C57  1  0.09835000  0.47712000  0.14576000  1
  C  C58  1  0.62126000  0.52288000  0.85423000  1
  C  C59  1  0.03736000  0.36254000  0.47588000  1
  C  C60  1  0.64359000  0.61580000  0.52416000  1
  C  C61  1  0.68390000  0.45244000  0.35463000  1
  Cr  Cr62  1  0.93434000  0.54076000  0.25089000  1
  Cr  Cr63  1  0.70943000  0.77204000  0.74921000  1
  Cr  Cr64  1  0.93739000  0.22796000  0.25079000  1
  Cr  Cr65  1  0.39358000  0.45924000  0.74911000  1
  Cr  Cr66  1  0.62169000  0.22474000  0.24927000  1
  Cr  Cr67  1  0.39695000  0.77526000  0.75073000  1
  H  H68  1  0.82612000  0.24548000  0.97837000  1
  H  H69  1  0.53350000  0.56010000  0.08076000  1
  H  H70  1  0.87743000  0.61532000  0.45776000  1
  H  H71  1  0.28398000  0.42080000  0.42406000  1
  H  H72  1  0.86549000  0.61108000  0.57736000  1
  H  H73  1  0.25006000  0.36796000  0.94442000  1
  H  H74  1  0.88207000  0.63206000  0.05565000  1
  H  H75  1  0.07821500  0.31242000  0.92601000  1
  H  H76  1  0.97342000  0.43986000  0.91918000  1
  H  H77  1  0.76571000  0.68758000  0.07398000  1
  H  H78  1  0.02815500  0.27686000  0.04495500  1
  H  H79  1  0.75128500  0.72314000  0.95503000  1
  H  H80  1  0.20581500  0.34209000  0.06501000  1
  H  H81  1  0.86372500  0.65790000  0.93504000  1
  H  H82  1  0.40555500  0.67316000  0.95558000  1
  H  H83  1  0.73242000  0.32682000  0.04449000  1
  H  H84  1  0.36181500  0.59085000  0.07769000  1
  H  H85  1  0.77102000  0.40916000  0.92238000  1
  H  H86  1  0.96701000  0.04060000  0.08657000  1
  H  H87  1  0.93601500  0.45765000  0.04144000  1
  H  H88  1  0.83428000  0.88300000  0.12386000  1
  H  H89  1  0.91395000  0.88958000  0.03744000  1
  H  H90  1  0.92639500  0.95940000  0.91349000  1
  H  H91  1  0.95122000  0.11700000  0.87619000  1
  H  H92  1  0.02434000  0.11042000  0.96262000  1
  H  H93  1  0.47838500  0.54236000  0.95847000  1
  H  H94  1  0.06629000  0.63406000  0.04213500  1
  H  H95  1  0.43229000  0.36594000  0.95780000  1
  H  H96  1  0.58071500  0.75450000  0.02163000  1
  H  H97  1  0.29936000  0.74114000  0.96621000  1
  H  H98  1  0.55826000  0.25884000  0.03379000  1
  H  H99  1  0.30021000  0.70796000  0.08632000  1
  H  H100  1  0.59233000  0.29204000  0.91369000  1
  H  H101  1  0.83495000  0.93514000  0.55816000  1
  H  H102  1  0.90741000  0.09792000  0.44449000  1
  H  H103  1  0.88704000  0.10940000  0.56440000  1
  H  H104  1  0.80706500  0.92282000  0.44122000  1
  H  H105  1  0.56670000  0.78368000  0.54031000  1
  H  H106  1  0.71682000  0.23090000  0.45653000  1
  H  H107  1  0.57304000  0.80282000  0.41846000  1
  H  H108  1  0.73863000  0.20098000  0.58042000  1
  H  H109  1  0.54376000  0.06724000  0.93415000  1
  H  H110  1  0.47651000  0.93270000  0.06579500  1
  H  H111  1  0.55507000  0.09300000  0.57888000  1
  H  H112  1  0.06403000  0.62234000  0.92162000  1
  H  H113  1  0.46537000  0.87700000  0.42270000  1
  H  H114  1  0.54593000  0.09560000  0.45901000  1
  H  H115  1  0.44802500  0.84566000  0.54538000  1
  H  H116  1  0.23000000  0.73642000  0.55881000  1
  H  H117  1  0.51845000  0.25614000  0.44403000  1
  H  H118  1  0.44169000  0.37762000  0.07830000  1
  H  H119  1  0.05569000  0.61440000  0.56565000  1
  H  H120  1  0.44410500  0.35710000  0.43992000  1
  H  H121  1  0.06672000  0.64582000  0.44545000  1
  H  H122  1  0.42854500  0.33068000  0.55712000  1
  H  H123  1  0.24146000  0.71776000  0.44183000  1
  H  H124  1  0.55199000  0.27994000  0.56391000  1
  H  H125  1  0.38112000  0.62080000  0.53880000  1
  H  H126  1  0.84182500  0.44457000  0.45700000  1
  H  H127  1  0.35897000  0.60204000  0.41790000  1
  H  H128  1  0.79072000  0.42802000  0.58074000  1
  H  H129  1  0.07247000  0.30078000  0.58154000  1
  H  H130  1  0.74072000  0.69648000  0.41997000  1
  H  H131  1  0.96456000  0.37640000  0.58312000  1
  H  H132  1  0.55893000  0.58990000  0.41514000  1
  H  H133  1  0.93091000  0.32062000  0.45980000  1
  H  H134  1  0.54445000  0.59834000  0.53571000  1
  H  H135  1  0.06659000  0.28540000  0.46206000  1
  H  H136  1  0.72471000  0.71744000  0.54220000  1
  H  H137  1  0.32125000  0.44112000  0.54624000  1
  O  O138  1  0.07730000  0.57174000  0.17011000  1
  O  O139  1  0.73987000  0.91434000  0.66838000  1
  O  O140  1  0.82553000  0.08566000  0.33162000  1
  O  O141  1  0.05424000  0.35826000  0.32687000  1
  O  O142  1  0.69598000  0.64174000  0.67313000  1
  O  O143  1  0.83114000  0.33114000  0.25032000  1
  O  O144  1  0.50000000  0.66886000  0.74968000  1
  O  O145  1  0.50556000  0.42826000  0.82989000  1
  O  O146  1  0.80480000  0.52790000  0.17473000  1
  O  O147  1  0.27690000  0.47210000  0.82527000  1
  O  O148  1  0.59125000  0.33580000  0.16769000  1
  O  O149  1  0.25545000  0.66420000  0.83231000  1
  O  O150  1  0.63488000  0.10700000  0.17376000  1
  O  O151  1  0.52788000  0.89300000  0.82624000  1
  O  O152  1  0.82686000  0.08538000  0.16872000  1
  O  O153  1  0.74148000  0.91462000  0.83128000  1
  O  O154  1  0.05548000  0.35800000  0.17587000  1
  O  O155  1  0.69748000  0.64200000  0.82413000  1
  O  O156  1  0.07597000  0.57202000  0.33300000  1
  O  O157  1  0.50395000  0.42798000  0.66700000  1
  O  O158  1  0.80356000  0.52816000  0.32574000  1
  O  O159  1  0.27540000  0.47184000  0.67426000  1
  O  O160  1  0.58992000  0.33608000  0.33059000  1
  O  O161  1  0.63365000  0.10728000  0.32477000  1
  O  O162  1  0.25384000  0.66392000  0.66941000  1
  O  O163  1  0.52637000  0.89272000  0.67523000  1
