# generated using pymatgen
data_H32C49N8
_symmetry_space_group_name_H-M   'P 1'
_cell_length_a   25.11630000
_cell_length_b   52.17963869
_cell_length_c   52.17840000
_cell_angle_alpha   119.99964416
_cell_angle_beta   90.00000000
_cell_angle_gamma   89.67790209
_symmetry_Int_Tables_number   1
_chemical_formula_structural   H32C49N8
_chemical_formula_sum   'H192 C294 N48'
_cell_volume   59220.28947733
_cell_formula_units_Z   6
loop_
 _symmetry_equiv_pos_site_id
 _symmetry_equiv_pos_as_xyz
  1  'x, y, z'
loop_
 _atom_site_type_symbol
 _atom_site_label
 _atom_site_symmetry_multiplicity
 _atom_site_fract_x
 _atom_site_fract_y
 _atom_site_fract_z
 _atom_site_occupancy
  H  25  1  0.58293500  0.49537400  0.41738000  1
  H  26  1  0.63305900  0.49510100  0.37825400  1
  H  27  1  0.69202300  0.50142900  0.34478200  1
  H  28  1  0.75608300  0.51430500  0.31910400  1
  H  29  1  0.81270600  0.58376600  0.40070400  1
  H  30  1  0.67128300  0.56848600  0.48070200  1
  H  31  1  0.66206700  0.60690200  0.42322100  1
  H  32  1  0.72487300  0.68929800  0.48760600  1
  H  33  1  0.78705600  0.66460800  0.50271100  1
  H  34  1  0.80502800  0.52885400  0.44154600  1
  H  35  1  0.84156200  0.63220200  0.51292700  1
  H  36  1  0.89237200  0.59389700  0.51413600  1
  H  66  1  0.24590800  0.92122200  0.50904500  1
  H  67  1  0.29601200  0.88134000  0.50759100  1
  H  68  1  0.35661900  0.84134400  0.50023000  1
  H  69  1  0.42530900  0.80483100  0.48814800  1
  H  70  1  0.48781200  0.82366100  0.42410700  1
  H  71  1  0.34007200  0.91667500  0.43966700  1
  H  72  1  0.33217700  0.81989900  0.39925800  1
  H  73  1  0.39371600  0.80329700  0.31686700  1
  H  74  1  0.45501600  0.84318500  0.34164100  1
  H  75  1  0.47293700  0.91613100  0.47754000  1
  H  76  1  0.50901000  0.88574800  0.37435800  1
  H  77  1  0.55918900  0.92501400  0.41277000  1
  H  107  1  0.91089300  0.59487100  0.08961300  1
  H  108  1  0.96081500  0.63291100  0.12946200  1
  H  109  1  0.02178200  0.66507900  0.16920400  1
  H  110  1  0.09093000  0.68889000  0.20510800  1
  H  111  1  0.15245300  0.60546600  0.18582700  1
  H  112  1  0.00445400  0.52932800  0.09359900  1
  H  113  1  0.99748600  0.58638100  0.19134000  1
  H  114  1  0.05277000  0.51738800  0.20487500  1
  H  115  1  0.11396700  0.50162600  0.16445400  1
  H  116  1  0.13861300  0.56750000  0.09460100  1
  H  117  1  0.17020700  0.49246400  0.12258900  1
  H  118  1  0.22204700  0.49205100  0.08387200  1
  H  148  1  0.08352800  0.51283500  0.59285200  1
  H  149  1  0.13406600  0.51328200  0.63198100  1
  H  150  1  0.19342300  0.50685800  0.66538500  1
  H  151  1  0.25730700  0.49358200  0.69096400  1
  H  152  1  0.31359100  0.42328800  0.60931100  1
  H  153  1  0.17197400  0.43888300  0.52957800  1
  H  154  1  0.16419400  0.40141400  0.58810400  1
  H  155  1  0.22155300  0.31831500  0.52102000  1
  H  156  1  0.28381300  0.34238000  0.50539000  1
  H  157  1  0.30653900  0.47800100  0.56851500  1
  H  158  1  0.34014800  0.37446900  0.49568100  1
  H  159  1  0.39155400  0.41235700  0.49449800  1
  H  189  1  0.75033200  0.08415100  0.49507000  1
  H  190  1  0.80079600  0.12289700  0.49499900  1
  H  191  1  0.86002900  0.16266900  0.50171200  1
  H  192  1  0.92387500  0.20128900  0.51513600  1
  H  193  1  0.97905800  0.18912300  0.58499700  1
  H  194  1  0.83751900  0.09397700  0.56876900  1
  H  195  1  0.82982400  0.19053400  0.60697600  1
  H  196  1  0.88584100  0.20571800  0.68983000  1
  H  197  1  0.94788100  0.16556800  0.66549700  1
  H  198  1  0.97266800  0.09380300  0.52986700  1
  H  199  1  0.00442200  0.12364100  0.63323000  1
  H  200  1  0.05649700  0.08458400  0.59516700  1
  H  230  1  0.41829400  0.41719800  0.92689400  1
  H  231  1  0.46938100  0.37816900  0.88818900  1
  H  232  1  0.52874200  0.34486700  0.84821800  1
  H  233  1  0.59241100  0.31935400  0.80915300  1
  H  234  1  0.64692600  0.40109800  0.82074900  1
  H  235  1  0.50476900  0.48065100  0.91632600  1
  H  236  1  0.49773400  0.42192900  0.82007300  1
  H  237  1  0.55322500  0.48896200  0.80394100  1
  H  238  1  0.61515700  0.50488700  0.84385800  1
  H  239  1  0.64019800  0.44207900  0.91664400  1
  H  240  1  0.67147300  0.51480300  0.88576900  1
  H  241  1  0.72318200  0.51619300  0.92497200  1
  H  257  1  0.87704900  0.52096700  0.29300000  1
  H  258  1  0.91689600  0.51004500  0.24780700  1
  H  260  1  0.97085000  0.64850100  0.27016000  1
  H  261  1  0.98345600  0.67212300  0.30827100  1
  H  262  1  0.92048100  0.67310900  0.29313700  1
  H  264  1  0.91151900  0.69036900  0.34748800  1
  H  265  1  0.91802400  0.67525500  0.37099300  1
  H  266  1  0.85507200  0.67588700  0.35589900  1
  H  268  1  0.86332300  0.59220700  0.35894900  1
  H  270  1  0.95239400  0.52437200  0.21525300  1
  H  281  1  0.53034300  0.77217700  0.49034100  1
  H  282  1  0.58286400  0.74058200  0.50036300  1
  H  284  1  0.63683800  0.62584300  0.36021700  1
  H  285  1  0.63993100  0.64043100  0.33609900  1
  H  286  1  0.58167300  0.62189300  0.33747200  1
  H  288  1  0.55907800  0.65805800  0.32035900  1
  H  289  1  0.55858000  0.69678900  0.33520500  1
  H  290  1  0.50033400  0.67854000  0.33674700  1
  H  292  1  0.45902900  0.75385000  0.43253900  1
  H  294  1  0.62846700  0.69642500  0.48555900  1
  H  305  1  0.19783500  0.72252700  0.23563100  1
  H  306  1  0.25186400  0.76351300  0.26600600  1
  H  308  1  0.30742300  0.73945400  0.38136200  1
  H  309  1  0.30945000  0.70079500  0.36726200  1
  H  310  1  0.25195600  0.72169700  0.38643600  1
  H  312  1  0.22761700  0.66861000  0.35119500  1
  H  313  1  0.22589300  0.64430400  0.31255700  1
  H  314  1  0.16841500  0.66508500  0.33145700  1
  H  316  1  0.12591200  0.68510800  0.25585200  1
  H  318  1  0.29893100  0.79269100  0.30937200  1
  H  329  1  0.37522500  0.48628700  0.71752800  1
  H  330  1  0.41449100  0.49720300  0.76276400  1
  H  332  1  0.47610600  0.35884600  0.73943100  1
  H  333  1  0.48989400  0.33560900  0.70133000  1
  H  334  1  0.42704900  0.33386400  0.71612700  1
  H  336  1  0.41885100  0.31696700  0.66183800  1
  H  337  1  0.42444500  0.33244300  0.63862100  1
  H  338  1  0.36158800  0.33106200  0.65337200  1
  H  340  1  0.36503200  0.41506400  0.65117200  1
  H  342  1  0.45255100  0.48303900  0.79482700  1
  H  353  1  0.04162600  0.23494500  0.52258500  1
  H  354  1  0.08156500  0.26931700  0.51205800  1
  H  356  1  0.14277000  0.38282800  0.65081400  1
  H  357  1  0.15606000  0.36747100  0.67366300  1
  H  358  1  0.09339400  0.38453800  0.67580600  1
  H  360  1  0.08452700  0.34674100  0.69212600  1
  H  361  1  0.08982300  0.30796000  0.67621900  1
  H  362  1  0.02716100  0.32464200  0.67801700  1
  H  364  1  0.03060900  0.23901900  0.59348000  1
  H  366  1  0.12083500  0.31512800  0.52652800  1
  H  377  1  0.70894300  0.29243000  0.77440600  1
  H  378  1  0.74765900  0.24704600  0.73953500  1
  H  380  1  0.80721500  0.27148600  0.62521000  1
  H  381  1  0.82123200  0.30952700  0.64038100  1
  H  382  1  0.75811900  0.29533600  0.62408000  1
  H  384  1  0.75051100  0.34955300  0.66195200  1
  H  385  1  0.75674800  0.37238400  0.70066100  1
  H  386  1  0.69362800  0.35823800  0.68477200  1
  H  388  1  0.69824700  0.35930700  0.77036500  1
  H  390  1  0.78453700  0.21500000  0.69286300  1
  H  401  1  0.91241800  0.48404400  0.47709900  1
  H  402  1  0.96033700  0.46075400  0.49958000  1
  H  404  1  0.16655900  0.55669100  0.56662400  1
  H  405  1  0.14212500  0.59281300  0.57859000  1
  H  406  1  0.18249000  0.57438300  0.54624400  1
  H  408  1  0.12279400  0.61239700  0.54403800  1
  H  409  1  0.05399300  0.61772300  0.54129100  1
  H  410  1  0.09388400  0.59960600  0.50888400  1
  H  412  1  0.95497400  0.54922400  0.47476300  1
  H  414  1  0.02070300  0.47946000  0.54845200  1
  H  425  1  0.57813800  0.99691700  0.52218600  1
  H  426  1  0.62564200  0.04252900  0.54588500  1
  H  428  1  0.83598700  0.01327400  0.45148100  1
  H  429  1  0.81292600  0.98923300  0.41517800  1
  H  430  1  0.85219500  0.97515700  0.43383900  1
  H  432  1  0.79373600  0.93513000  0.39536200  1
  H  433  1  0.72508000  0.92724700  0.38952800  1
  H  434  1  0.76386100  0.91279600  0.40787700  1
  H  436  1  0.62233800  0.92949100  0.45663000  1
  H  438  1  0.68699900  0.07267200  0.52786700  1
  H  449  1  0.24454200  0.53167900  0.01405600  1
  H  450  1  0.29285100  0.51014900  0.96847200  1
  H  452  1  0.50203400  0.44298100  0.99634800  1
  H  453  1  0.47838000  0.43033300  0.01999200  1
  H  454  1  0.51763800  0.46291000  0.03447800  1
  H  456  1  0.45837200  0.46410700  0.07422400  1
  H  457  1  0.38956700  0.46636100  0.08209400  1
  H  458  1  0.42830300  0.49900900  0.09695600  1
  H  460  1  0.28692200  0.53193500  0.08086400  1
  H  462  1  0.35440600  0.46152100  0.93789400  1
  H  473  1  0.41235700  0.52234700  0.53274800  1
  H  474  1  0.45991300  0.54642200  0.51114200  1
  H  476  1  0.66693800  0.45019500  0.44163800  1
  H  477  1  0.64285600  0.41401500  0.42889100  1
  H  478  1  0.68316800  0.43159600  0.46115600  1
  H  480  1  0.62394200  0.39324500  0.46244300  1
  H  481  1  0.55521200  0.38805500  0.46520700  1
  H  482  1  0.59502300  0.40533300  0.49753800  1
  H  484  1  0.45568100  0.45575800  0.53274700  1
  H  486  1  0.52014600  0.52836800  0.46210300  1
  H  497  1  0.07906100  0.01367800  0.48514600  1
  H  498  1  0.12669200  0.96778100  0.46096400  1
  H  500  1  0.33205300  0.99334100  0.55711600  1
  H  501  1  0.30749900  0.01688500  0.59332300  1
  H  502  1  0.34820600  0.03138100  0.57570300  1
  H  504  1  0.28859800  0.07129000  0.61413200  1
  H  505  1  0.21983700  0.07959800  0.61939300  1
  H  506  1  0.26009000  0.09444500  0.60207600  1
  H  508  1  0.12136500  0.07992800  0.55176900  1
  H  510  1  0.18614900  0.93614200  0.47798700  1
  H  521  1  0.74435200  0.47916400  0.99732400  1
  H  522  1  0.79118000  0.50116400  0.04322200  1
  H  524  1  0.99942900  0.56845400  0.01590500  1
  H  525  1  0.97598400  0.58074100  0.99187500  1
  H  526  1  0.01616400  0.54826300  0.97787200  1
  H  528  1  0.95774400  0.54657200  0.93761700  1
  H  529  1  0.88915500  0.54405800  0.92931600  1
  H  530  1  0.92890200  0.51153500  0.91495600  1
  H  532  1  0.78843800  0.47825500  0.93044400  1
  H  534  1  0.85100000  0.54913000  0.07434500  1
  C  1  1  0.78297000  0.57329300  0.45553000  1
  C  2  1  0.79418600  0.60282700  0.47629000  1
  C  3  1  0.75989100  0.62139700  0.47226600  1
  C  4  1  0.72453600  0.60442400  0.44927900  1
  C  5  1  0.68724900  0.61910800  0.44045100  1
  C  6  1  0.68553200  0.65056000  0.45501700  1
  C  7  1  0.72327200  0.66671900  0.47761800  1
  C  8  1  0.75988900  0.65243500  0.48661800  1
  C  9  1  0.83435300  0.61058100  0.49758000  1
  C  10  1  0.86399300  0.58801300  0.49807800  1
  C  11  1  0.85490600  0.55778400  0.47728200  1
  C  12  1  0.81332300  0.55052200  0.45621400  1
  C  13  1  0.69179000  0.55359200  0.43595900  1
  C  14  1  0.68063200  0.53202300  0.40668400  1
  C  15  1  0.71557900  0.53484900  0.38768500  1
  C  16  1  0.75054600  0.55821900  0.40416100  1
  C  17  1  0.71775300  0.51844300  0.35662900  1
  C  18  1  0.75524600  0.52618600  0.34178300  1
  C  19  1  0.79015000  0.55021600  0.35750900  1
  C  20  1  0.78796500  0.56622700  0.38897100  1
  C  21  1  0.66199900  0.55369200  0.45919700  1
  C  22  1  0.62034200  0.53292600  0.45272700  1
  C  23  1  0.61066700  0.51157800  0.42271300  1
  C  24  1  0.64014500  0.51110600  0.39966300  1
  C  37  1  0.73742600  0.57223000  0.43640900  1
  C  42  1  0.45106200  0.88622400  0.43307700  1
  C  43  1  0.46219000  0.87785800  0.40357100  1
  C  44  1  0.42853000  0.85519800  0.38488000  1
  C  45  1  0.39382300  0.84869100  0.40178100  1
  C  46  1  0.35697800  0.82518200  0.38706600  1
  C  47  1  0.35510600  0.80866500  0.35561900  1
  C  48  1  0.39221100  0.81556800  0.33947200  1
  C  49  1  0.42838300  0.83888400  0.35381400  1
  C  50  1  0.50181500  0.89174100  0.39594000  1
  C  51  1  0.53111900  0.91464300  0.41857200  1
  C  52  1  0.52224800  0.92359600  0.44874900  1
  C  53  1  0.48106300  0.90951800  0.45590500  1
  C  54  1  0.35947800  0.88505900  0.45246200  1
  C  55  1  0.34654600  0.87546300  0.47241500  1
  C  56  1  0.38235200  0.85370600  0.46916900  1
  C  57  1  0.41983500  0.84903100  0.44735600  1
  C  58  1  0.38396500  0.83766900  0.48421000  1
  C  59  1  0.42397500  0.81621900  0.47687500  1
  C  60  1  0.46207500  0.81045800  0.45458800  1
  C  61  1  0.46039100  0.82737200  0.44010400  1
  C  62  1  0.32963200  0.90868800  0.45329000  1
  C  63  1  0.28650000  0.92181700  0.47354000  1
  C  64  1  0.27489800  0.91125600  0.49322300  1
  C  65  1  0.30432600  0.88806800  0.49268200  1
  C  78  1  0.40629700  0.86776000  0.43397500  1
  C  83  1  0.11489100  0.55220600  0.12366500  1
  C  84  1  0.12461000  0.53038900  0.13131100  1
  C  85  1  0.09038400  0.53438800  0.15389000  1
  C  86  1  0.05712600  0.55871000  0.16123800  1
  C  87  1  0.02075900  0.56805800  0.18520200  1
  C  88  1  0.01758900  0.55255100  0.20110000  1
  C  89  1  0.05249200  0.52821200  0.19305100  1
  C  90  1  0.08852900  0.51887900  0.16945000  1
  C  91  1  0.16387200  0.50846700  0.11705200  1
  C  92  1  0.19416800  0.50846200  0.09449700  1
  C  93  1  0.18655500  0.53031900  0.08625500  1
  C  94  1  0.14574800  0.55196900  0.10067900  1
  C  95  1  0.02385600  0.57358300  0.12527100  1
  C  96  1  0.01105600  0.60323500  0.13506000  1
  C  97  1  0.04689800  0.62143400  0.15671200  1
  C  98  1  0.08418900  0.60396900  0.16113600  1
  C  99  1  0.04891200  0.65249400  0.17273400  1
  C  100  1  0.08919400  0.66624700  0.19383400  1
  C  101  1  0.12720600  0.64939900  0.19929000  1
  C  102  1  0.12502800  0.61801000  0.18242500  1
  C  103  1  0.99410200  0.55101300  0.10167800  1
  C  104  1  0.95120600  0.55844500  0.08870700  1
  C  105  1  0.93972400  0.58878300  0.09943900  1
  C  106  1  0.96906200  0.61120600  0.12260800  1
  C  119  1  0.07037700  0.57198500  0.14239900  1
  C  124  1  0.28371300  0.43376400  0.55427100  1
  C  125  1  0.29392600  0.40415800  0.53304700  1
  C  126  1  0.25926600  0.38592200  0.53716000  1
  C  127  1  0.22502500  0.40324400  0.56085100  1
  C  128  1  0.18810800  0.38897500  0.57017400  1
  C  129  1  0.18520900  0.35756400  0.55514900  1
  C  130  1  0.22106300  0.34094800  0.53143700  1
  C  131  1  0.25772100  0.35486500  0.52217800  1
  C  132  1  0.33358600  0.39612000  0.51134200  1
  C  133  1  0.36361100  0.41844200  0.51086700  1
  C  134  1  0.35538900  0.44871900  0.53206100  1
  C  135  1  0.31430700  0.45627900  0.55355100  1
  C  136  1  0.19289000  0.45420900  0.57430600  1
  C  137  1  0.18184500  0.47603700  0.60355800  1
  C  138  1  0.21680700  0.47303800  0.62247200  1
  C  139  1  0.25157000  0.44927600  0.60594700  1
  C  140  1  0.21903600  0.48957800  0.65350700  1
  C  141  1  0.25643500  0.48160500  0.66829200  1
  C  142  1  0.29119400  0.45723600  0.65251900  1
  C  143  1  0.28899700  0.44109300  0.62106900  1
  C  144  1  0.16289200  0.45397000  0.55108000  1
  C  145  1  0.12113000  0.47492100  0.55758300  1
  C  146  1  0.11148700  0.49656500  0.58755400  1
  C  147  1  0.14124100  0.49716000  0.61058500  1
  C  160  1  0.23844700  0.43526700  0.57374600  1
  C  165  1  0.94907400  0.12360700  0.57416900  1
  C  166  1  0.95873800  0.13171400  0.60371300  1
  C  167  1  0.92396600  0.15419400  0.62206100  1
  C  168  1  0.89009200  0.16086900  0.60486800  1
  C  169  1  0.85335600  0.18474900  0.61929600  1
  C  170  1  0.85021200  0.20104700  0.65071200  1
  C  171  1  0.88552900  0.19355300  0.66719300  1
  C  172  1  0.92205800  0.17011700  0.65312100  1
  C  173  1  0.99820300  0.11780300  0.61162000  1
  C  174  1  0.02863800  0.09503900  0.58920500  1
  C  175  1  0.02095400  0.08624500  0.55899300  1
  C  176  1  0.98000800  0.10037000  0.55155500  1
  C  177  1  0.85859700  0.12365100  0.55383300  1
  C  178  1  0.84791900  0.13132400  0.53216500  1
  C  179  1  0.88290000  0.15316600  0.53528400  1
  C  180  1  0.91740400  0.16007100  0.55893000  1
  C  181  1  0.88542400  0.16784100  0.51892200  1
  C  182  1  0.92281700  0.19045200  0.52697100  1
  C  183  1  0.95724000  0.19876100  0.55127100  1
  C  184  1  0.95472200  0.18328400  0.56724200  1
  C  185  1  0.82863800  0.10060400  0.55383500  1
  C  186  1  0.78726200  0.08635000  0.53283000  1
  C  187  1  0.77796400  0.09496700  0.51138400  1
  C  188  1  0.80768200  0.11745300  0.51101300  1
  C  201  1  0.90390800  0.14180900  0.57280500  1
  C  206  1  0.61677400  0.45613700  0.88649300  1
  C  207  1  0.62627800  0.47736200  0.87809700  1
  C  208  1  0.59159100  0.47311800  0.85565500  1
  C  209  1  0.55796700  0.44937200  0.84927300  1
  C  210  1  0.52116100  0.43991600  0.82559200  1
  C  211  1  0.51784900  0.45482200  0.80909100  1
  C  212  1  0.55304600  0.47862000  0.81622900  1
  C  213  1  0.58952900  0.48804400  0.83952700  1
  C  214  1  0.66544200  0.49915500  0.89178200  1
  C  215  1  0.69564500  0.49974600  0.91465400  1
  C  216  1  0.68810900  0.47857700  0.92377600  1
  C  217  1  0.64750200  0.45700800  0.90983500  1
  C  218  1  0.52652100  0.43595900  0.88685700  1
  C  219  1  0.51621600  0.40668900  0.87941900  1
  C  220  1  0.55139300  0.38782200  0.85750800  1
  C  221  1  0.58568300  0.40440000  0.85033700  1
  C  222  1  0.55408500  0.35678200  0.84290000  1
  C  223  1  0.59132100  0.34203600  0.82000400  1
  C  224  1  0.62545200  0.35786200  0.81139700  1
  C  225  1  0.62286200  0.38931400  0.82685100  1
  C  226  1  0.49618900  0.45913300  0.90987000  1
  C  227  1  0.45483300  0.45254700  0.92430100  1
  C  228  1  0.44592600  0.42255400  0.91593200  1
  C  229  1  0.47600700  0.39958000  0.89348200  1
  C  242  1  0.57185100  0.43657800  0.86849900  1
  C  247  1  0.88033700  0.56791100  0.31360100  1
  C  248  1  0.89804200  0.59075700  0.30842300  1
  C  249  1  0.92255700  0.58415000  0.28108900  1
  C  250  1  0.92979500  0.55445700  0.25793700  1
  C  251  1  0.91202700  0.53192700  0.26346400  1
  C  252  1  0.88826900  0.53840800  0.29044500  1
  C  254  1  0.93289100  0.63628700  0.29906300  1
  C  255  1  0.90801100  0.64287900  0.32610700  1
  C  259  1  0.95307800  0.65877900  0.29225700  1
  C  263  1  0.89775000  0.67285100  0.35141700  1
  C  267  1  0.85598500  0.57359800  0.34020000  1
  C  269  1  0.95518900  0.54567200  0.23076000  1
  C  271  1  0.53301800  0.74587500  0.44344300  1
  C  272  1  0.55243700  0.71854800  0.42016400  1
  C  273  1  0.58394700  0.69929500  0.42611100  1
  C  274  1  0.59552100  0.70654000  0.45564600  1
  C  275  1  0.57590000  0.73410400  0.47859600  1
  C  276  1  0.54528600  0.75320000  0.47273400  1
  C  278  1  0.59114900  0.66519400  0.37370200  1
  C  279  1  0.55937600  0.68429000  0.36790200  1
  C  283  1  0.61369500  0.63671300  0.35055700  1
  C  287  1  0.54366500  0.67893900  0.33832000  1
  C  291  1  0.49489500  0.76279400  0.43918600  1
  C  293  1  0.62549100  0.68901000  0.46389600  1
  C  295  1  0.20058200  0.70250400  0.26244800  1
  C  296  1  0.22065300  0.70668500  0.28964500  1
  C  297  1  0.25307100  0.73151300  0.30817100  1
  C  298  1  0.26501600  0.75331400  0.30032000  1
  C  299  1  0.24474900  0.74855800  0.27288700  1
  C  300  1  0.21320700  0.72396600  0.25451200  1
  C  302  1  0.26049600  0.71383000  0.34276700  1
  C  303  1  0.22785600  0.68930800  0.32439200  1
  C  307  1  0.28366100  0.71926000  0.37107500  1
  C  311  1  0.21175000  0.66560100  0.33041300  1
  C  315  1  0.16159400  0.68181500  0.24633600  1
  C  317  1  0.29563000  0.77881500  0.31721100  1
  C  319  1  0.38101800  0.43935000  0.69658800  1
  C  320  1  0.39992700  0.41652500  0.70162300  1
  C  321  1  0.42411500  0.42313400  0.72899800  1
  C  322  1  0.42977700  0.45281100  0.75234900  1
  C  323  1  0.41074900  0.47532100  0.74697700  1
  C  324  1  0.38733700  0.46884000  0.71995500  1
  C  326  1  0.43735700  0.37103100  0.71063500  1
  C  327  1  0.41276300  0.36443300  0.68355800  1
  C  331  1  0.45883400  0.34856400  0.71727200  1
  C  335  1  0.40409900  0.33447400  0.65804100  1
  C  339  1  0.35709300  0.43364800  0.66991000  1
  C  341  1  0.45518300  0.46164800  0.77948400  1
  C  343  1  0.04716800  0.26043600  0.56953000  1
  C  344  1  0.06614800  0.28804000  0.59250300  1
  C  345  1  0.09073100  0.30884100  0.58612900  1
  C  346  1  0.09676300  0.30281700  0.55654600  1
  C  347  1  0.07760300  0.27520000  0.53388900  1
  C  348  1  0.05377800  0.25462500  0.54013600  1
  C  350  1  0.10369100  0.34201900  0.63829300  1
  C  351  1  0.07873800  0.32150400  0.64465600  1
  C  355  1  0.12521500  0.37086500  0.66092700  1
  C  359  1  0.06973200  0.32563800  0.67450200  1
  C  363  1  0.02296400  0.23940900  0.57500800  1
  C  365  1  0.12270700  0.32111800  0.54791500  1
  C  367  1  0.71421500  0.31378000  0.74879800  1
  C  368  1  0.73263100  0.30892300  0.72095200  1
  C  369  1  0.75648800  0.28145800  0.69985500  1
  C  370  1  0.76227800  0.25784300  0.70582400  1
  C  371  1  0.74376900  0.26303700  0.73369400  1
  C  372  1  0.72069800  0.29014800  0.75456500  1
  C  374  1  0.76913400  0.30024700  0.66648300  1
  C  375  1  0.74487100  0.32742400  0.68729600  1
  C  379  1  0.79013100  0.29376500  0.63737400  1
  C  383  1  0.73611900  0.35322500  0.68324600  1
  C  387  1  0.69054700  0.34052000  0.77007500  1
  C  389  1  0.78739100  0.23059000  0.68717600  1
  C  391  1  0.96450900  0.52040400  0.49052700  1
  C  392  1  0.01208300  0.53291000  0.50677000  1
  C  393  1  0.04104100  0.51879000  0.51974900  1
  C  394  1  0.02352600  0.49164300  0.51679900  1
  C  395  1  0.97573600  0.47956700  0.50101500  1
  C  396  1  0.94713900  0.49345200  0.48792600  1
  C  398  1  0.10308100  0.55934700  0.54082900  1
  C  399  1  0.07431100  0.57350800  0.52796800  1
  C  403  1  0.15132200  0.57149700  0.55912000  1
  C  407  1  0.08728300  0.60243800  0.53083500  1
  C  411  1  0.93496800  0.53563900  0.47947600  1
  C  413  1  0.04524100  0.48069700  0.53410300  1
  C  415  1  0.63154500  0.97386200  0.48615700  1
  C  416  1  0.67981400  0.97751800  0.47404200  1
  C  417  1  0.70852800  0.00453900  0.48841700  1
  C  418  1  0.69009900  0.02876800  0.51545500  1
  C  419  1  0.64169500  0.02513200  0.52716900  1
  C  420  1  0.61333800  0.99824000  0.51303400  1
  C  422  1  0.77221800  0.98496400  0.44831200  1
  C  423  1  0.74372200  0.95802400  0.43390200  1
  C  427  1  0.82112600  0.99101000  0.43653500  1
  C  431  1  0.75769500  0.93195800  0.40504400  1
  C  435  1  0.60214300  0.94769400  0.47061800  1
  C  437  1  0.71159200  0.05701100  0.52657700  1
  C  439  1  0.29737400  0.51796200  0.03669200  1
  C  440  1  0.34561000  0.50193000  0.03282300  1
  C  441  1  0.37479100  0.48950600  0.00582000  1
  C  442  1  0.35687400  0.49283200  0.98185000  1
  C  443  1  0.30854200  0.50847700  0.98570700  1
  C  444  1  0.27971900  0.52100800  0.01258200  1
  C  446  1  0.43790300  0.46817000  0.02486400  1
  C  447  1  0.40894500  0.48049300  0.05179600  1
  C  451  1  0.48678100  0.45006000  0.01855100  1
  C  455  1  0.42236300  0.47718200  0.07759200  1
  C  459  1  0.26731700  0.52821600  0.06272300  1
  C  461  1  0.37868900  0.47585800  0.95355400  1
  C  463  1  0.46475500  0.48561500  0.51829700  1
  C  464  1  0.51243800  0.47323900  0.50179100  1
  C  465  1  0.54120500  0.48782700  0.48933600  1
  C  466  1  0.52343900  0.51536200  0.49309400  1
  C  467  1  0.47554100  0.52732000  0.50913300  1
  C  468  1  0.44713200  0.51296200  0.52169700  1
  C  470  1  0.60361400  0.44703900  0.46719000  1
  C  471  1  0.57506800  0.43242400  0.47953800  1
  C  475  1  0.65190400  0.43503000  0.44865700  1
  C  479  1  0.58836600  0.40311600  0.47584700  1
  C  483  1  0.43546600  0.46998800  0.52891300  1
  C  485  1  0.54487200  0.52684900  0.47623000  1
  C  487  1  0.13088900  0.03559900  0.52188300  1
  C  488  1  0.17824900  0.03122500  0.53424700  1
  C  489  1  0.20705200  0.00403800  0.51961700  1
  C  490  1  0.18956500  0.98039600  0.49208200  1
  C  491  1  0.14202900  0.98474900  0.48011300  1
  C  492  1  0.11359700  0.01180200  0.49451600  1
  C  494  1  0.26885800  0.02234900  0.56034700  1
  C  495  1  0.24025800  0.04945600  0.57500300  1
  C  499  1  0.31689900  0.01559600  0.57230200  1
  C  503  1  0.25323000  0.07500600  0.60429800  1
  C  507  1  0.10140900  0.06190900  0.53754600  1
  C  509  1  0.21108900  0.95195700  0.48033500  1
  C  511  1  0.79722900  0.49286600  0.97483500  1
  C  512  1  0.84496200  0.50907200  0.97892700  1
  C  513  1  0.87329400  0.52179500  0.00613200  1
  C  514  1  0.85496600  0.51863800  0.03011900  1
  C  515  1  0.80710500  0.50283100  0.02603900  1
  C  516  1  0.77914700  0.49000500  0.99896800  1
  C  518  1  0.93635400  0.54297500  0.98715400  1
  C  519  1  0.90822400  0.53037600  0.96003800  1
  C  523  1  0.98474900  0.56114900  0.99357400  1
  C  527  1  0.92208900  0.53343300  0.93415300  1
  C  531  1  0.76821800  0.48207100  0.94846200  1
  C  533  1  0.87612400  0.53552600  0.05851300  1
  N  38  1  0.82234900  0.55519400  0.34030500  1
  N  39  1  0.88358700  0.53790200  0.48074800  1
  N  40  1  0.65236800  0.66531300  0.44659400  1
  N  41  1  0.59550100  0.52924200  0.47342900  1
  N  79  1  0.50049300  0.79096900  0.45042700  1
  N  80  1  0.55073600  0.94675700  0.46873000  1
  N  81  1  0.32201600  0.78559700  0.34104900  1
  N  82  1  0.26171100  0.94658300  0.47806800  1
  N  120  1  0.16631300  0.66432500  0.21816400  1
  N  121  1  0.21588300  0.52747700  0.06342500  1
  N  122  1  0.98674600  0.56178500  0.22519600  1
  N  123  1  0.92664700  0.53835200  0.06395100  1
  N  161  1  0.32324200  0.45207800  0.66968600  1
  N  162  1  0.38403600  0.46851700  0.52863200  1
  N  163  1  0.15377100  0.34293500  0.56428500  1
  N  164  1  0.09593500  0.47825700  0.53676600  1
  N  202  1  0.98930400  0.22099900  0.55653300  1
  N  203  1  0.04997500  0.06306100  0.53912100  1
  N  204  1  0.81920800  0.22513100  0.66553600  1
  N  205  1  0.76220800  0.06212300  0.52922900  1
  N  243  1  0.65717900  0.34073600  0.78883300  1
  N  244  1  0.71677500  0.48217800  0.94711300  1
  N  245  1  0.48677700  0.44547300  0.78514900  1
  N  246  1  0.42940600  0.47326600  0.94850400  1
  N  253  1  0.93859300  0.60733200  0.27807400  1
  N  256  1  0.89204700  0.61977100  0.32928200  1
  N  277  1  0.60143000  0.67369200  0.40244100  1
  N  280  1  0.54173000  0.70993000  0.39145700  1
  N  301  1  0.27106000  0.73359500  0.33370300  1
  N  304  1  0.20968400  0.68707900  0.29883400  1
  N  325  1  0.44148600  0.39996800  0.73182500  1
  N  328  1  0.39551100  0.38752600  0.68055800  1
  N  349  1  0.10813000  0.33456700  0.60943000  1
  N  352  1  0.06145000  0.29567500  0.62142900  1
  N  373  1  0.77341000  0.27879800  0.67389600  1
  N  376  1  0.72806100  0.33025200  0.71335200  1
  N  397  1  0.08464700  0.53292600  0.53611900  1
  N  400  1  0.03049800  0.55955000  0.51182900  1
  N  421  1  0.75284100  0.00669100  0.47461900  1
  N  424  1  0.69920100  0.95593300  0.44752200  1
  N  445  1  0.41901400  0.47324600  0.00340800  1
  N  448  1  0.36449900  0.49650000  0.05414000  1
  N  469  1  0.58490200  0.47378400  0.47266100  1
  N  472  1  0.53115500  0.44629300  0.49597200  1
  N  493  1  0.25047100  0.00117200  0.53361100  1
  N  496  1  0.19662400  0.05225400  0.56118000  1
  N  517  1  0.91713400  0.53810200  0.00866700  1
  N  520  1  0.86418700  0.51430100  0.95756700  1
