# generated using pymatgen
data_Cu4H20C37O20
_symmetry_space_group_name_H-M   'P 1'
_cell_length_a   12.19920046
_cell_length_b   26.30093671
_cell_length_c   26.41050997
_cell_angle_alpha   90.00184570
_cell_angle_beta   89.99802435
_cell_angle_gamma   89.99599339
_symmetry_Int_Tables_number   1
_chemical_formula_structural   Cu4H20C37O20
_chemical_formula_sum   'Cu16 H80 C148 O80'
_cell_volume   8473.82263709
_cell_formula_units_Z   4
loop_
 _symmetry_equiv_pos_site_id
 _symmetry_equiv_pos_as_xyz
  1  'x, y, z'
loop_
 _atom_site_type_symbol
 _atom_site_label
 _atom_site_symmetry_multiplicity
 _atom_site_fract_x
 _atom_site_fract_y
 _atom_site_fract_z
 _atom_site_occupancy
  Cu  Cu1  1  0.92973170  0.99453017  0.96724861  1.0
  Cu  Cu2  1  0.07041762  0.00550126  0.46718507  1.0
  Cu  Cu3  1  0.07033182  0.49450761  0.53277058  1.0
  Cu  Cu4  1  0.92956544  0.50550536  0.03282669  1.0
  Cu  Cu5  1  0.07043524  0.00549541  0.03283264  1.0
  Cu  Cu6  1  0.92959897  0.99450484  0.53280004  1.0
  Cu  Cu7  1  0.92966368  0.50549254  0.46722962  1.0
  Cu  Cu8  1  0.07013628  0.49451912  0.96731581  1.0
  Cu  Cu9  1  0.99655893  0.70764594  0.24999473  1.0
  Cu  Cu10  1  0.13888018  0.77351143  0.24998782  1.0
  Cu  Cu11  1  0.00344441  0.29234546  0.74998782  1.0
  Cu  Cu12  1  0.86111196  0.22648184  0.75000097  1.0
  Cu  Cu13  1  0.00337511  0.20766473  0.24999652  1.0
  Cu  Cu14  1  0.86125231  0.27344867  0.25000171  1.0
  Cu  Cu15  1  0.99655343  0.79237109  0.74999368  1.0
  Cu  Cu16  1  0.13888497  0.72650249  0.74998248  1.0
  H  H1  1  0.08522266  0.61068489  0.13322451  1.0
  H  H2  1  0.30157066  0.61077395  0.00424605  1.0
  H  H3  1  0.33539564  0.72523960  0.12108162  1.0
  H  H4  1  0.40950135  0.76414050  0.05386354  1.0
  H  H5  1  0.51814363  0.72529226  0.07830616  1.0
  H  H6  1  0.56313048  0.67172579  0.97403888  1.0
  H  H7  1  0.66911451  0.69555451  0.01467212  1.0
  H  H8  1  0.75030712  0.63014174  0.97702675  1.0
  H  H9  1  0.01120325  0.62171432  0.86761903  1.0
  H  H10  1  0.78708136  0.74853497  0.86473377  1.0
  H  H11  1  0.91483252  0.38930515  0.63323076  1.0
  H  H12  1  0.69850856  0.38924792  0.50427632  1.0
  H  H13  1  0.66462855  0.27476304  0.62109294  1.0
  H  H14  1  0.59046937  0.23586331  0.55384905  1.0
  H  H15  1  0.48183648  0.27471705  0.57830703  1.0
  H  H16  1  0.43684529  0.32829002  0.47403210  1.0
  H  H17  1  0.33084548  0.30445235  0.51466886  1.0
  H  H18  1  0.24971793  0.36985819  0.47704621  1.0
  H  H19  1  0.98884229  0.37830704  0.36766247  1.0
  H  H20  1  0.21294310  0.25146059  0.36475731  1.0
  H  H21  1  0.91485918  0.11069027  0.36675462  1.0
  H  H22  1  0.69847609  0.11075562  0.49572878  1.0
  H  H23  1  0.66463291  0.22523066  0.37892285  1.0
  H  H24  1  0.59049450  0.26413734  0.44614183  1.0
  H  H25  1  0.48185266  0.22529190  0.42169734  1.0
  H  H26  1  0.43687354  0.17172665  0.52596114  1.0
  H  H27  1  0.33088071  0.19556358  0.48532968  1.0
  H  H28  1  0.24975428  0.13015618  0.52294585  1.0
  H  H29  1  0.98883700  0.12169153  0.63234642  1.0
  H  H30  1  0.21289652  0.24851954  0.63524852  1.0
  H  H31  1  0.08514438  0.88931229  0.86672663  1.0
  H  H32  1  0.30149225  0.88926375  0.99571984  1.0
  H  H33  1  0.33533627  0.77477669  0.87890914  1.0
  H  H34  1  0.40952651  0.73587289  0.94615441  1.0
  H  H35  1  0.51813859  0.77472727  0.92169933  1.0
  H  H36  1  0.56313619  0.82829068  0.02596700  1.0
  H  H37  1  0.66913425  0.80445232  0.98531715  1.0
  H  H38  1  0.75019078  0.86984938  0.02293419  1.0
  H  H39  1  0.01113395  0.87833086  0.13233358  1.0
  H  H40  1  0.78710474  0.75149818  0.13523993  1.0
  H  H41  1  0.91483562  0.38929152  0.86672716  1.0
  H  H42  1  0.69854167  0.38924500  0.99571764  1.0
  H  H43  1  0.66463103  0.27476439  0.87889098  1.0
  H  H44  1  0.59052135  0.23586732  0.94612557  1.0
  H  H45  1  0.48187184  0.27471995  0.92168424  1.0
  H  H46  1  0.43687718  0.32827460  0.02595810  1.0
  H  H47  1  0.33088616  0.30444097  0.98532803  1.0
  H  H48  1  0.24979156  0.36983253  0.02294455  1.0
  H  H49  1  0.98887120  0.37830650  0.13232392  1.0
  H  H50  1  0.21295123  0.25146011  0.13525120  1.0
  H  H51  1  0.08516784  0.61069706  0.36676792  1.0
  H  H52  1  0.30148857  0.61074839  0.49572868  1.0
  H  H53  1  0.33538799  0.72523823  0.37891477  1.0
  H  H54  1  0.40951730  0.76413162  0.44615155  1.0
  H  H55  1  0.51815036  0.72528041  0.42169762  1.0
  H  H56  1  0.56314501  0.67171228  0.52597017  1.0
  H  H57  1  0.66914400  0.69555170  0.48533259  1.0
  H  H58  1  0.75027301  0.63014812  0.52295455  1.0
  H  H59  1  0.01116039  0.62168688  0.63234056  1.0
  H  H60  1  0.78706665  0.74853442  0.63524901  1.0
  H  H61  1  0.08513954  0.88931025  0.63323819  1.0
  H  H62  1  0.30151951  0.88924274  0.50426282  1.0
  H  H63  1  0.33535407  0.77477163  0.62109036  1.0
  H  H64  1  0.40949306  0.73586494  0.55386169  1.0
  H  H65  1  0.51813256  0.77470857  0.57830565  1.0
  H  H66  1  0.56310834  0.82827626  0.47403804  1.0
  H  H67  1  0.66910893  0.80443755  0.51467451  1.0
  H  H68  1  0.75025586  0.86984892  0.47705382  1.0
  H  H69  1  0.01117971  0.87831474  0.36765061  1.0
  H  H70  1  0.78708516  0.75148523  0.36475547  1.0
  H  H71  1  0.91483583  0.11067254  0.13324575  1.0
  H  H72  1  0.69844073  0.11075068  0.00426613  1.0
  H  H73  1  0.66466711  0.22522443  0.12108098  1.0
  H  H74  1  0.59047375  0.26413508  0.05384543  1.0
  H  H75  1  0.48184951  0.22527997  0.07829012  1.0
  H  H76  1  0.43686704  0.17170965  0.97402892  1.0
  H  H77  1  0.33088871  0.19555427  0.01467929  1.0
  H  H78  1  0.24975136  0.13013903  0.97704936  1.0
  H  H79  1  0.98883469  0.12169145  0.86763446  1.0
  H  H80  1  0.21289218  0.24850651  0.86475947  1.0
  C  C1  1  0.20862600  0.66940068  0.13199702  1.0
  C  C2  1  0.15463574  0.62670490  0.11302632  1.0
  C  C3  1  0.18840542  0.60573924  0.06694492  1.0
  C  C4  1  0.27611859  0.62675099  0.04042050  1.0
  C  C5  1  0.32929167  0.66987016  0.05953983  1.0
  C  C6  1  0.29661820  0.69139384  0.10557897  1.0
  C  C7  1  0.16438853  0.69383876  0.17885454  1.0
  C  C8  1  0.12382336  0.56350765  0.04381709  1.0
  C  C9  1  0.46780452  0.73346848  0.04469952  1.0
  C  C10  1  0.61279137  0.70531641  0.98353656  1.0
  C  C11  1  0.75776240  0.69267405  0.92289400  1.0
  C  C12  1  0.79141373  0.64682441  0.94449347  1.0
  C  C13  1  0.88303889  0.62161693  0.92422843  1.0
  C  C14  1  0.93971681  0.64127234  0.88264687  1.0
  C  C15  1  0.90411854  0.68716009  0.86131049  1.0
  C  C16  1  0.81352528  0.71261756  0.88115480  1.0
  C  C17  1  0.92312706  0.57456575  0.95002990  1.0
  C  C18  1  0.96436436  0.71172964  0.81856343  1.0
  C  C19  1  0.79140910  0.33060053  0.63199443  1.0
  C  C20  1  0.84541147  0.37329572  0.61302299  1.0
  C  C21  1  0.81165116  0.39428254  0.56695120  1.0
  C  C22  1  0.72392069  0.37325550  0.54044834  1.0
  C  C23  1  0.67073968  0.33013129  0.55956214  1.0
  C  C24  1  0.70340949  0.30860218  0.60559096  1.0
  C  C25  1  0.83558106  0.30614861  0.67884735  1.0
  C  C26  1  0.87609732  0.43651836  0.54374153  1.0
  C  C27  1  0.53218957  0.26655075  0.54470067  1.0
  C  C28  1  0.38719164  0.29470072  0.48354133  1.0
  C  C29  1  0.24222376  0.30733572  0.42290968  1.0
  C  C30  1  0.20856229  0.35319202  0.44451184  1.0
  C  C31  1  0.11696166  0.37841060  0.42425460  1.0
  C  C32  1  0.06032034  0.35873770  0.38266637  1.0
  C  C33  1  0.09590056  0.31283868  0.36132891  1.0
  C  C34  1  0.18649494  0.28737650  0.38117289  1.0
  C  C35  1  0.07671587  0.42546819  0.45000427  1.0
  C  C36  1  0.03567350  0.28825251  0.31857582  1.0
  C  C37  1  0.79143775  0.16939270  0.36799970  1.0
  C  C38  1  0.84542742  0.12668749  0.38697527  1.0
  C  C39  1  0.81165899  0.10571215  0.43305397  1.0
  C  C40  1  0.72392921  0.12674543  0.45956159  1.0
  C  C41  1  0.67074416  0.16986409  0.44044074  1.0
  C  C42  1  0.70340649  0.19138574  0.39440496  1.0
  C  C43  1  0.83566635  0.19382732  0.32113583  1.0
  C  C44  1  0.87611747  0.06348150  0.45625955  1.0
  C  C45  1  0.53221409  0.23345995  0.45529908  1.0
  C  C46  1  0.38720315  0.20531358  0.51646138  1.0
  C  C47  1  0.24221588  0.19265846  0.57709414  1.0
  C  C48  1  0.20857041  0.14680696  0.55548651  1.0
  C  C49  1  0.11696446  0.12158745  0.57574682  1.0
  C  C50  1  0.06031512  0.14126117  0.61733439  1.0
  C  C51  1  0.09589194  0.18714541  0.63867078  1.0
  C  C52  1  0.18646931  0.21260847  0.61883190  1.0
  C  C53  1  0.07672173  0.07453812  0.54999264  1.0
  C  C54  1  0.03561373  0.21169517  0.68141651  1.0
  C  C55  1  0.20856086  0.83062899  0.86799701  1.0
  C  C56  1  0.15457848  0.87333933  0.88696291  1.0
  C  C57  1  0.18833123  0.89431395  0.93304553  1.0
  C  C58  1  0.27606992  0.87328068  0.95955050  1.0
  C  C59  1  0.32922793  0.83014467  0.94043707  1.0
  C  C60  1  0.29654306  0.80861881  0.89440797  1.0
  C  C61  1  0.16435765  0.80617477  0.82114762  1.0
  C  C62  1  0.12391469  0.93653201  0.95633151  1.0
  C  C63  1  0.46779225  0.76655825  0.95530234  1.0
  C  C64  1  0.61281445  0.79470647  0.01645264  1.0
  C  C65  1  0.75777977  0.80737111  0.07708120  1.0
  C  C66  1  0.79140089  0.85322962  0.05547736  1.0
  C  C67  1  0.88302227  0.87843986  0.07573276  1.0
  C  C68  1  0.93965931  0.85876657  0.11732779  1.0
  C  C69  1  0.90409346  0.81286955  0.13865773  1.0
  C  C70  1  0.81352789  0.78740837  0.11881477  1.0
  C  C71  1  0.92343188  0.92549265  0.05000756  1.0
  C  C72  1  0.96437232  0.78830203  0.18140345  1.0
  C  C73  1  0.79143400  0.33059975  0.86799405  1.0
  C  C74  1  0.84543012  0.37329328  0.88696174  1.0
  C  C75  1  0.81163403  0.39426132  0.93302843  1.0
  C  C76  1  0.72392757  0.37323570  0.95955241  1.0
  C  C77  1  0.67074695  0.33011489  0.94043979  1.0
  C  C78  1  0.70343110  0.30860181  0.89440065  1.0
  C  C79  1  0.83559361  0.30614236  0.82113200  1.0
  C  C80  1  0.87593103  0.43651165  0.95629482  1.0
  C  C81  1  0.53220508  0.26653152  0.95529084  1.0
  C  C82  1  0.38722840  0.29468241  0.01645447  1.0
  C  C83  1  0.24224739  0.30732565  0.07708338  1.0
  C  C84  1  0.20859313  0.35317481  0.05547650  1.0
  C  C85  1  0.11700299  0.37837874  0.07574787  1.0
  C  C86  1  0.06032757  0.35872352  0.11733318  1.0
  C  C87  1  0.09590345  0.31282960  0.13867243  1.0
  C  C88  1  0.18650944  0.28737473  0.11882533  1.0
  C  C89  1  0.07664377  0.42545380  0.05007273  1.0
  C  C90  1  0.03564081  0.28825477  0.18143320  1.0
  C  C91  1  0.20859298  0.66940194  0.36800376  1.0
  C  C92  1  0.15459253  0.62670674  0.38697856  1.0
  C  C93  1  0.18834620  0.60571838  0.43305195  1.0
  C  C94  1  0.27607817  0.62674271  0.45955947  1.0
  C  C95  1  0.32925481  0.66986705  0.44044339  1.0
  C  C96  1  0.29659533  0.69139938  0.39441107  1.0
  C  C97  1  0.16439927  0.69384415  0.32114850  1.0
  C  C98  1  0.12389928  0.56348218  0.45626191  1.0
  C  C99  1  0.46780009  0.73344632  0.45530298  1.0
  C  C100  1  0.61280423  0.70529994  0.51646318  1.0
  C  C101  1  0.75777231  0.69266165  0.57709235  1.0
  C  C102  1  0.79142447  0.64680795  0.55548972  1.0
  C  C103  1  0.88303087  0.62158586  0.57574765  1.0
  C  C104  1  0.93967951  0.64126320  0.61733617  1.0
  C  C105  1  0.90409402  0.68715785  0.63867237  1.0
  C  C106  1  0.81351259  0.71261798  0.61882898  1.0
  C  C107  1  0.92327145  0.57453320  0.55000175  1.0
  C  C108  1  0.96433523  0.71172400  0.68141279  1.0
  C  C109  1  0.20856627  0.83060781  0.63200164  1.0
  C  C110  1  0.15457447  0.87330317  0.61302121  1.0
  C  C111  1  0.18834170  0.89428865  0.56694922  1.0
  C  C112  1  0.27608422  0.87326138  0.54043619  1.0
  C  C113  1  0.32925356  0.83013554  0.55955591  1.0
  C  C114  1  0.29657856  0.80861195  0.60558836  1.0
  C  C115  1  0.16436351  0.80617832  0.67885080  1.0
  C  C116  1  0.12388954  0.93651559  0.54374153  1.0
  C  C117  1  0.46777849  0.76654011  0.54470060  1.0
  C  C118  1  0.61279226  0.79468986  0.48353728  1.0
  C  C119  1  0.75778522  0.80734521  0.42290762  1.0
  C  C120  1  0.79143419  0.85319549  0.44451422  1.0
  C  C121  1  0.88302876  0.87841418  0.42425586  1.0
  C  C122  1  0.93969739  0.85874459  0.38266159  1.0
  C  C123  1  0.90411603  0.81285544  0.36132291  1.0
  C  C124  1  0.81353685  0.78739461  0.38116565  1.0
  C  C125  1  0.92327308  0.92546718  0.45000756  1.0
  C  C126  1  0.96437231  0.78829285  0.31857661  1.0
  C  C127  1  0.79142777  0.16937359  0.13199069  1.0
  C  C128  1  0.84538105  0.12664648  0.11302988  1.0
  C  C129  1  0.81164471  0.10568424  0.06694091  1.0
  C  C130  1  0.72390411  0.12671624  0.04043687  1.0
  C  C131  1  0.67075720  0.16984867  0.05955544  1.0
  C  C132  1  0.70343152  0.19138101  0.10558278  1.0
  C  C133  1  0.83567843  0.19382297  0.17885222  1.0
  C  C134  1  0.87623109  0.06348332  0.04373113  1.0
  C  C135  1  0.53221573  0.23344506  0.04469209  1.0
  C  C136  1  0.38719593  0.20529634  0.98353906  1.0
  C  C137  1  0.24221262  0.19263450  0.92290587  1.0
  C  C138  1  0.20858078  0.14677295  0.94450128  1.0
  C  C139  1  0.11694588  0.12156060  0.92425115  1.0
  C  C140  1  0.06031929  0.14123435  0.88265885  1.0
  C  C141  1  0.09589351  0.18712957  0.86133796  1.0
  C  C142  1  0.18645337  0.21259456  0.88117590  1.0
  C  C143  1  0.07670433  0.07452428  0.95005481  1.0
  C  C144  1  0.03560588  0.21169298  0.81859218  1.0
  C  C145  1  0.54000435  0.75001571  0.00000331  1.0
  C  C146  1  0.45999881  0.25000652  0.49999995  1.0
  C  C147  1  0.46001215  0.24998563  0.99998730  1.0
  C  C148  1  0.53999842  0.74999429  0.50000239  1.0
  O  O1  1  0.07873849  0.67292752  0.19748277  1.0
  O  O2  1  0.21171430  0.73387531  0.19548733  1.0
  O  O3  1  0.03251673  0.55273009  0.06496890  1.0
  O  O4  1  0.16319541  0.54298428  0.00385095  1.0
  O  O5  1  0.41039818  0.68863962  0.02915380  1.0
  O  O6  1  0.67292727  0.72186820  0.94002096  1.0
  O  O7  1  0.87347232  0.56159750  0.99070971  1.0
  O  O8  1  0.00525493  0.55188588  0.93016762  1.0
  O  O9  1  0.05277728  0.69096440  0.80299011  1.0
  O  O10  1  0.92186977  0.75293128  0.80181938  1.0
  O  O11  1  0.92126367  0.32705668  0.69749264  1.0
  O  O12  1  0.78824908  0.26612576  0.69548773  1.0
  O  O13  1  0.96745742  0.44731903  0.56488652  1.0
  O  O14  1  0.83673310  0.45699686  0.50378826  1.0
  O  O15  1  0.58961924  0.31137529  0.52917016  1.0
  O  O16  1  0.32706857  0.27814732  0.44003259  1.0
  O  O17  1  0.12638005  0.43844904  0.49070097  1.0
  O  O18  1  0.99461248  0.44811370  0.43015195  1.0
  O  O19  1  0.94726233  0.30900870  0.30299945  1.0
  O  O20  1  0.07818632  0.24707619  0.30183265  1.0
  O  O21  1  0.92127281  0.17290924  0.30250919  1.0
  O  O22  1  0.78832859  0.23385215  0.30448946  1.0
  O  O23  1  0.96747025  0.05270085  0.43508632  1.0
  O  O24  1  0.83674865  0.04300652  0.49621369  1.0
  O  O25  1  0.58962429  0.18863370  0.47083138  1.0
  O  O26  1  0.32705201  0.22184997  0.55997457  1.0
  O  O27  1  0.12640203  0.06156608  0.50928599  1.0
  O  O28  1  0.99461005  0.05189658  0.56984433  1.0
  O  O29  1  0.94722949  0.19094028  0.69698951  1.0
  O  O30  1  0.07811034  0.25290415  0.69817625  1.0
  O  O31  1  0.07869409  0.82707803  0.80251890  1.0
  O  O32  1  0.21172143  0.76613985  0.80451675  1.0
  O  O33  1  0.03252893  0.94729050  0.93519086  1.0
  O  O34  1  0.16330322  0.95698688  0.99624128  1.0
  O  O35  1  0.41033501  0.81137809  0.97083305  1.0
  O  O36  1  0.67296440  0.77816816  0.05995854  1.0
  O  O37  1  0.87376850  0.93846309  0.00931529  1.0
  O  O38  1  0.00546610  0.94808726  0.06986784  1.0
  O  O39  1  0.05277146  0.80906833  0.19695789  1.0
  O  O40  1  0.92188487  0.74710784  0.19815549  1.0
  O  O41  1  0.92126855  0.32705231  0.80248525  1.0
  O  O42  1  0.78825406  0.26611976  0.80450300  1.0
  O  O43  1  0.96739469  0.44729177  0.93516234  1.0
  O  O44  1  0.83653324  0.45700484  0.99621080  1.0
  O  O45  1  0.58963426  0.31136195  0.97082740  1.0
  O  O46  1  0.32709170  0.27813634  0.05996520  1.0
  O  O47  1  0.12632832  0.43845038  0.00935502  1.0
  O  O48  1  0.99458721  0.44808270  0.06993606  1.0
  O  O49  1  0.94724475  0.30902117  0.19700109  1.0
  O  O50  1  0.07815224  0.24708035  0.19816227  1.0
  O  O51  1  0.07874067  0.67294316  0.30250442  1.0
  O  O52  1  0.21174015  0.73387573  0.30450284  1.0
  O  O53  1  0.03254593  0.55268322  0.43511820  1.0
  O  O54  1  0.16326184  0.54300186  0.49621543  1.0
  O  O55  1  0.41037475  0.68862558  0.47083736  1.0
  O  O56  1  0.67292435  0.72185277  0.55997400  1.0
  O  O57  1  0.87362276  0.56154416  0.50930191  1.0
  O  O58  1  0.00537626  0.55188659  0.56985274  1.0
  O  O59  1  0.05275594  0.69095795  0.69697767  1.0
  O  O60  1  0.92185208  0.75292484  0.69817761  1.0
  O  O61  1  0.07871680  0.82708707  0.69749904  1.0
  O  O62  1  0.21171324  0.76613901  0.69548649  1.0
  O  O63  1  0.03252568  0.94731796  0.56488090  1.0
  O  O64  1  0.16330015  0.95697910  0.50377964  1.0
  O  O65  1  0.41037177  0.81136582  0.52916713  1.0
  O  O66  1  0.67294335  0.77815606  0.44002507  1.0
  O  O67  1  0.87362535  0.93846048  0.49070418  1.0
  O  O68  1  0.00539804  0.94808883  0.43013746  1.0
  O  O69  1  0.05276994  0.80905300  0.30300055  1.0
  O  O70  1  0.92189678  0.74709291  0.30182002  1.0
  O  O71  1  0.92129460  0.17290399  0.19745596  1.0
  O  O72  1  0.78832812  0.23384496  0.19549268  1.0
  O  O73  1  0.96750639  0.05271505  0.06487200  1.0
  O  O74  1  0.83680345  0.04301514  0.00378604  1.0
  O  O75  1  0.58965988  0.18862570  0.02915518  1.0
  O  O76  1  0.32702855  0.22183635  0.94003223  1.0
  O  O77  1  0.12633049  0.06155035  0.99071344  1.0
  O  O78  1  0.99459917  0.05191393  0.93017691  1.0
  O  O79  1  0.94722774  0.19093212  0.80303335  1.0
  O  O80  1  0.07811043  0.25289989  0.80183909  1.0
