# generated using pymatgen
data_CdH8C12(NO2)2
_symmetry_space_group_name_H-M   'P 1'
_cell_length_a   12.59493000
_cell_length_b   15.32169000
_cell_length_c   19.35568000
_cell_angle_alpha   90.08822000
_cell_angle_beta   89.93188000
_cell_angle_gamma   89.83348000
_symmetry_Int_Tables_number   1
_chemical_formula_structural   CdH8C12(NO2)2
_chemical_formula_sum   'Cd8 H64 C96 N16 O32'
_cell_volume   3735.15135129
_cell_formula_units_Z   8
loop_
 _symmetry_equiv_pos_site_id
 _symmetry_equiv_pos_as_xyz
  1  'x, y, z'
loop_
 _atom_site_type_symbol
 _atom_site_label
 _atom_site_symmetry_multiplicity
 _atom_site_fract_x
 _atom_site_fract_y
 _atom_site_fract_z
 _atom_site_occupancy
  Cd  Cd1  1  0.82132000  0.21909000  0.67616000  1.0
  Cd  Cd2  1  0.67918000  0.78175000  0.17466000  1.0
  Cd  Cd3  1  0.17999000  0.71831000  0.82438000  1.0
  Cd  Cd4  1  0.32190000  0.28276000  0.32606000  1.0
  Cd  Cd5  1  0.17868000  0.78091000  0.32383000  1.0
  Cd  Cd6  1  0.32083000  0.21825000  0.82534000  1.0
  Cd  Cd7  1  0.82001000  0.28169000  0.17561000  1.0
  Cd  Cd8  1  0.67810000  0.71724000  0.67394000  1.0
  H  H1  1  0.61770000  0.39006000  0.50827000  1.0
  H  H2  1  0.48834000  0.39888000  0.40879000  1.0
  H  H3  1  0.35877000  0.15894000  0.45817000  1.0
  H  H4  1  0.48681000  0.13893000  0.55791000  1.0
  H  H5  1  0.78992000  0.42692000  0.66427000  1.0
  H  H6  1  0.88974000  0.56419000  0.69024000  1.0
  H  H7  1  0.09744000  0.41061000  0.81994000  1.0
  H  H8  1  0.99151000  0.27908000  0.78675000  1.0
  H  H9  1  0.88421000  0.61145000  0.00789000  1.0
  H  H10  1  0.01291000  0.60133000  0.90808000  1.0
  H  H11  1  0.14373000  0.84127000  0.95591000  1.0
  H  H12  1  0.01644000  0.86281000  0.05596000  1.0
  H  H13  1  0.71243000  0.57362000  0.16409000  1.0
  H  H14  1  0.61299000  0.43627000  0.19053000  1.0
  H  H15  1  0.40410000  0.59010000  0.31960000  1.0
  H  H16  1  0.50966000  0.72187000  0.28617000  1.0
  H  H17  1  0.38405000  0.89244000  0.99283000  1.0
  H  H18  1  0.51253000  0.89917000  0.09274000  1.0
  H  H19  1  0.63959000  0.65784000  0.04296000  1.0
  H  H20  1  0.51256000  0.63983000  0.94260000  1.0
  H  H21  1  0.21077000  0.92589000  0.83627000  1.0
  H  H22  1  0.11048000  0.06325000  0.81080000  1.0
  H  H23  1  0.90255000  0.91025000  0.68117000  1.0
  H  H24  1  0.00883000  0.77844000  0.71401000  1.0
  H  H25  1  0.11678000  0.11009000  0.49226000  1.0
  H  H26  1  0.98897000  0.10199000  0.59280000  1.0
  H  H27  1  0.85935000  0.34276000  0.54459000  1.0
  H  H28  1  0.98627000  0.36218000  0.44417000  1.0
  H  H29  1  0.28912000  0.07515000  0.33668000  1.0
  H  H30  1  0.38697000  0.93693000  0.30897000  1.0
  H  H31  1  0.59670000  0.08960000  0.18049000  1.0
  H  H32  1  0.49230000  0.22213000  0.21503000  1.0
  H  H33  1  0.38230000  0.60994000  0.49173000  1.0
  H  H34  1  0.51166000  0.60112000  0.59120000  1.0
  H  H35  1  0.64123000  0.84106000  0.54183000  1.0
  H  H36  1  0.51319000  0.86107000  0.44209000  1.0
  H  H37  1  0.21008000  0.57308000  0.33572000  1.0
  H  H38  1  0.11026000  0.43581000  0.30976000  1.0
  H  H39  1  0.90256000  0.58939000  0.18006000  1.0
  H  H40  1  0.00849000  0.72092000  0.21325000  1.0
  H  H41  1  0.11579000  0.38855000  0.99211000  1.0
  H  H42  1  0.98709000  0.39867000  0.09192000  1.0
  H  H43  1  0.85628000  0.15873000  0.04409000  1.0
  H  H44  1  0.98356000  0.13719000  0.94404000  1.0
  H  H45  1  0.28757000  0.42638000  0.83591000  1.0
  H  H46  1  0.38701000  0.56373000  0.80947000  1.0
  H  H47  1  0.59590000  0.40990000  0.68039000  1.0
  H  H48  1  0.49035000  0.27813000  0.71383000  1.0
  H  H49  1  0.61595000  0.10756000  0.00717000  1.0
  H  H50  1  0.48747000  0.10083000  0.90726000  1.0
  H  H51  1  0.36042000  0.34216000  0.95704000  1.0
  H  H52  1  0.48744000  0.36017000  0.05739000  1.0
  H  H53  1  0.78923000  0.07411000  0.16373000  1.0
  H  H54  1  0.88952000  0.93675000  0.18920000  1.0
  H  H55  1  0.09745000  0.08975000  0.31882000  1.0
  H  H56  1  0.99117000  0.22156000  0.28599000  1.0
  H  H57  1  0.88323000  0.88991000  0.50774000  1.0
  H  H58  1  0.01103000  0.89801000  0.40720000  1.0
  H  H59  1  0.14065000  0.65724000  0.45540000  1.0
  H  H60  1  0.01373000  0.63782000  0.55583000  1.0
  H  H61  1  0.71088000  0.92485000  0.66332000  1.0
  H  H62  1  0.61303000  0.06307000  0.69103000  1.0
  H  H63  1  0.40330000  0.91040000  0.81951000  1.0
  H  H64  1  0.50770000  0.77788000  0.78497000  1.0
  C  C1  1  0.64413000  0.25367000  0.59551000  1.0
  C  C2  1  0.56170000  0.26337000  0.53979000  1.0
  C  C3  1  0.56137000  0.33795000  0.49810000  1.0
  C  C4  1  0.49028000  0.34283000  0.44331000  1.0
  C  C5  1  0.41831000  0.20781000  0.47090000  1.0
  C  C6  1  0.48798000  0.19743000  0.52612000  1.0
  C  C7  1  0.85880000  0.42608000  0.69800000  1.0
  C  C8  1  0.91426000  0.50232000  0.71288000  1.0
  C  C9  1  0.00264000  0.49776000  0.75651000  1.0
  C  C10  1  0.03040000  0.41693000  0.78488000  1.0
  C  C11  1  0.97126000  0.34361000  0.76751000  1.0
  C  C12  1  0.06517000  0.57856000  0.77355000  1.0
  C  C13  1  0.85687000  0.75023000  0.09370000  1.0
  C  C14  1  0.94004000  0.73880000  0.03843000  1.0
  C  C15  1  0.94040000  0.66352000  0.99730000  1.0
  C  C16  1  0.01134000  0.65779000  0.94232000  1.0
  C  C17  1  0.08394000  0.79282000  0.96906000  1.0
  C  C18  1  0.01448000  0.80405000  0.02440000  1.0
  C  C19  1  0.64342000  0.57459000  0.19783000  1.0
  C  C20  1  0.58819000  0.49830000  0.21291000  1.0
  C  C21  1  0.49955000  0.50289000  0.25647000  1.0
  C  C22  1  0.47141000  0.58386000  0.28464000  1.0
  C  C23  1  0.53036000  0.65724000  0.26713000  1.0
  C  C24  1  0.43743000  0.42186000  0.27364000  1.0
  C  C25  1  0.35620000  0.75541000  0.90536000  1.0
  C  C26  1  0.43852000  0.76484000  0.96113000  1.0
  C  C27  1  0.43957000  0.83948000  0.00291000  1.0
  C  C28  1  0.51022000  0.84329000  0.05799000  1.0
  C  C29  1  0.58085000  0.70752000  0.03021000  1.0
  C  C30  1  0.51171000  0.69818000  0.97466000  1.0
  C  C31  1  0.14186000  0.92516000  0.80257000  1.0
  C  C32  1  0.08604000  0.00148000  0.78800000  1.0
  C  C33  1  0.99740000  0.99718000  0.74456000  1.0
  C  C34  1  0.96976000  0.91642000  0.71608000  1.0
  C  C35  1  0.02924000  0.84293000  0.73323000  1.0
  C  C36  1  0.93521000  0.07860000  0.72797000  1.0
  C  C37  1  0.14385000  0.24782000  0.40613000  1.0
  C  C38  1  0.06148000  0.23764000  0.46184000  1.0
  C  C39  1  0.06115000  0.16276000  0.50317000  1.0
  C  C40  1  0.99066000  0.15815000  0.55841000  1.0
  C  C41  1  0.91870000  0.29361000  0.53156000  1.0
  C  C42  1  0.98785000  0.30377000  0.47602000  1.0
  C  C43  1  0.35785000  0.07559000  0.30271000  1.0
  C  C44  1  0.41229000  0.99886000  0.28697000  1.0
  C  C45  1  0.50090000  0.00291000  0.24336000  1.0
  C  C46  1  0.52952000  0.08375000  0.21557000  1.0
  C  C47  1  0.47121000  0.15759000  0.23372000  1.0
  C  C48  1  0.56270000  0.92135000  0.22633000  1.0
  C  C49  1  0.35587000  0.74633000  0.40449000  1.0
  C  C50  1  0.43830000  0.73663000  0.46021000  1.0
  C  C51  1  0.43863000  0.66205000  0.50189000  1.0
  C  C52  1  0.50972000  0.65717000  0.55668000  1.0
  C  C53  1  0.58169000  0.79220000  0.52910000  1.0
  C  C54  1  0.51202000  0.80257000  0.47388000  1.0
  C  C55  1  0.14120000  0.57392000  0.30199000  1.0
  C  C56  1  0.08574000  0.49768000  0.28711000  1.0
  C  C57  1  0.99736000  0.50224000  0.24349000  1.0
  C  C58  1  0.96960000  0.58307000  0.21511000  1.0
  C  C59  1  0.02874000  0.65639000  0.23249000  1.0
  C  C60  1  0.93483000  0.42144000  0.22645000  1.0
  C  C61  1  0.14313000  0.24977000  0.90629000  1.0
  C  C62  1  0.05997000  0.26120000  0.96156000  1.0
  C  C63  1  0.05960000  0.33648000  0.00270000  1.0
  C  C64  1  0.98866000  0.34221000  0.05768000  1.0
  C  C65  1  0.91606000  0.20718000  0.03094000  1.0
  C  C66  1  0.98552000  0.19595000  0.97560000  1.0
  C  C67  1  0.35659000  0.42541000  0.80217000  1.0
  C  C68  1  0.41181000  0.50170000  0.78709000  1.0
  C  C69  1  0.50046000  0.49711000  0.74353000  1.0
  C  C70  1  0.52859000  0.41614000  0.71535000  1.0
  C  C71  1  0.46964000  0.34276000  0.73287000  1.0
  C  C72  1  0.56257000  0.57814000  0.72636000  1.0
  C  C73  1  0.64381000  0.24459000  0.09464000  1.0
  C  C74  1  0.56148000  0.23516000  0.03887000  1.0
  C  C75  1  0.56044000  0.16052000  0.99709000  1.0
  C  C76  1  0.48978000  0.15671000  0.94201000  1.0
  C  C77  1  0.41915000  0.29248000  0.96979000  1.0
  C  C78  1  0.48830000  0.30182000  0.02533000  1.0
  C  C79  1  0.85814000  0.07484000  0.19742000  1.0
  C  C80  1  0.91397000  0.99852000  0.21199000  1.0
  C  C81  1  0.00260000  0.00282000  0.25544000  1.0
  C  C82  1  0.03024000  0.08358000  0.28391000  1.0
  C  C83  1  0.97077000  0.15707000  0.26677000  1.0
  C  C84  1  0.06479000  0.92140000  0.27203000  1.0
  C  C85  1  0.85615000  0.75218000  0.59387000  1.0
  C  C86  1  0.93852000  0.76236000  0.53816000  1.0
  C  C87  1  0.93885000  0.83724000  0.49683000  1.0
  C  C88  1  0.00934000  0.84185000  0.44158000  1.0
  C  C89  1  0.08130000  0.70639000  0.46844000  1.0
  C  C90  1  0.01216000  0.69623000  0.52398000  1.0
  C  C91  1  0.64216000  0.92441000  0.69728000  1.0
  C  C92  1  0.58771000  0.00114000  0.71303000  1.0
  C  C93  1  0.49911000  0.99709000  0.75664000  1.0
  C  C94  1  0.47048000  0.91625000  0.78443000  1.0
  C  C95  1  0.52879000  0.84241000  0.76627000  1.0
  C  C96  1  0.43730000  0.07865000  0.77367000  1.0
  N  N1  1  0.42038000  0.27864000  0.42946000  1.0
  N  N2  1  0.88722000  0.34749000  0.72407000  1.0
  N  N3  1  0.08133000  0.72167000  0.92784000  1.0
  N  N4  1  0.61456000  0.65332000  0.22368000  1.0
  N  N5  1  0.57904000  0.77812000  0.07200000  1.0
  N  N6  1  0.11356000  0.84662000  0.77644000  1.0
  N  N7  1  0.92099000  0.22267000  0.57288000  1.0
  N  N8  1  0.38722000  0.15420000  0.27735000  1.0
  N  N9  1  0.57963000  0.72136000  0.57054000  1.0
  N  N10  1  0.11278000  0.65251000  0.27592000  1.0
  N  N11  1  0.91867000  0.27834000  0.07216000  1.0
  N  N12  1  0.38544000  0.34668000  0.77632000  1.0
  N  N13  1  0.42096000  0.22188000  0.92800000  1.0
  N  N14  1  0.88644000  0.15338000  0.22356000  1.0
  N  N15  1  0.07901000  0.77733000  0.42711000  1.0
  N  N16  1  0.61278000  0.84580000  0.72264000  1.0
  O  O1  1  0.65796000  0.17853000  0.62202000  1.0
  O  O2  1  0.69879000  0.32058000  0.61103000  1.0
  O  O3  1  0.02682000  0.65220000  0.75714000  1.0
  O  O4  1  0.15344000  0.56905000  0.80571000  1.0
  O  O5  1  0.84073000  0.82625000  0.11801000  1.0
  O  O6  1  0.80366000  0.68316000  0.11114000  1.0
  O  O7  1  0.47617000  0.34841000  0.25717000  1.0
  O  O8  1  0.34905000  0.43106000  0.30597000  1.0
  O  O9  1  0.34312000  0.68027000  0.87843000  1.0
  O  O10  1  0.30114000  0.82226000  0.88992000  1.0
  O  O11  1  0.97323000  0.15136000  0.74634000  1.0
  O  O12  1  0.84795000  0.07071000  0.69430000  1.0
  O  O13  1  0.15923000  0.32372000  0.38140000  1.0
  O  O14  1  0.19708000  0.18054000  0.38896000  1.0
  O  O15  1  0.52362000  0.84843000  0.24295000  1.0
  O  O16  1  0.65124000  0.92945000  0.19410000  1.0
  O  O17  1  0.34204000  0.82147000  0.37798000  1.0
  O  O18  1  0.30121000  0.67942000  0.38896000  1.0
  O  O19  1  0.97318000  0.34780000  0.24285000  1.0
  O  O20  1  0.84656000  0.43095000  0.19429000  1.0
  O  O21  1  0.15927000  0.17375000  0.88199000  1.0
  O  O22  1  0.19635000  0.31685000  0.88886000  1.0
  O  O23  1  0.52384000  0.65159000  0.74283000  1.0
  O  O24  1  0.65095000  0.56894000  0.69403000  1.0
  O  O25  1  0.65688000  0.31973000  0.12157000  1.0
  O  O26  1  0.69886000  0.17774000  0.11008000  1.0
  O  O27  1  0.02678000  0.84864000  0.25366000  1.0
  O  O28  1  0.15205000  0.92929000  0.30570000  1.0
  O  O29  1  0.84078000  0.67628000  0.61859000  1.0
  O  O30  1  0.80292000  0.81946000  0.61104000  1.0
  O  O31  1  0.47638000  0.15157000  0.75705000  1.0
  O  O32  1  0.34876000  0.07055000  0.80590000  1.0
