# generated using pymatgen
data_H12C20N5O6
_symmetry_space_group_name_H-M   'P 1'
_cell_length_a   21.08040000
_cell_length_b   33.86930000
_cell_length_c   33.86930000
_cell_angle_alpha   120.00000000
_cell_angle_beta   90.00000000
_cell_angle_gamma   90.00000000
_symmetry_Int_Tables_number   1
_chemical_formula_structural   H12C20N5O6
_chemical_formula_sum   'H144 C240 N60 O72'
_cell_volume   20942.18157777
_cell_formula_units_Z   12
loop_
 _symmetry_equiv_pos_site_id
 _symmetry_equiv_pos_as_xyz
  1  'x, y, z'
loop_
 _atom_site_type_symbol
 _atom_site_label
 _atom_site_symmetry_multiplicity
 _atom_site_fract_x
 _atom_site_fract_y
 _atom_site_fract_z
 _atom_site_occupancy
  C  1  1  0.00884100  0.58165100  0.56110800  1
  C  2  1  0.00374800  0.58157100  0.60285300  1
  C  3  1  0.98666900  0.62057300  0.64452000  1
  C  4  1  0.96963500  0.66144700  0.64474700  1
  C  5  1  0.97264500  0.66229400  0.60309300  1
  C  6  1  0.99516800  0.62367900  0.56312800  1
  C  9  1  0.01980400  0.53976100  0.51817900  1
  C  10  1  0.05111300  0.50160900  0.51593200  1
  C  11  1  0.05473700  0.45882000  0.47540700  1
  C  12  1  0.03096800  0.45383900  0.43370500  1
  C  13  1  0.00230900  0.49231200  0.43433200  1
  C  14  1  0.99567700  0.53346800  0.47630600  1
  C  23  1  0.98382400  0.49178500  0.39350700  1
  C  24  1  0.07435200  0.42074100  0.47942000  1
  C  25  1  0.98101000  0.61634900  0.68423300  1
  C  26  1  0.93300400  0.69267900  0.59673700  1
  C  31  1  0.34296700  0.00967600  0.47971800  1
  C  32  1  0.33684300  0.05210800  0.48125500  1
  C  33  1  0.31966100  0.05553900  0.44274900  1
  C  34  1  0.30411800  0.01535200  0.40106200  1
  C  35  1  0.30830000  0.97234300  0.39902900  1
  C  36  1  0.32995000  0.97006500  0.43734500  1
  C  39  1  0.35512800  0.00777300  0.52078900  1
  C  40  1  0.39186600  0.04145800  0.55684300  1
  C  41  1  0.39819800  0.04343700  0.59933500  1
  C  42  1  0.36835800  0.00970200  0.60654500  1
  C  43  1  0.33555400  0.97296100  0.56937800  1
  C  44  1  0.32862200  0.97347900  0.52801700  1
  C  53  1  0.31077100  0.93488800  0.57192000  1
  C  54  1  0.43329800  0.08073000  0.63372300  1
  C  55  1  0.31523500  0.09970800  0.44771400  1
  C  56  1  0.27293000  0.93447900  0.36604700  1
  C  61  1  0.68682600  0.53154200  0.00846000  1
  C  62  1  0.66280400  0.49003800  0.97227500  1
  C  63  1  0.67021000  0.44766400  0.97046100  1
  C  64  1  0.69948100  0.44609200  0.00762500  1
  C  65  1  0.72179300  0.48761800  0.04539800  1
  C  66  1  0.71760400  0.52868100  0.04417200  1
  C  69  1  0.67592100  0.57483500  0.01042600  1
  C  70  1  0.66516600  0.57779400  0.97064600  1
  C  71  1  0.64316600  0.61810500  0.97247300  1
  C  72  1  0.63706900  0.65899600  0.01543000  1
  C  73  1  0.65142000  0.65780900  0.05600000  1
  C  74  1  0.66867200  0.61585800  0.05264200  1
  C  83  1  0.64373300  0.69678100  0.10031400  1
  C  84  1  0.60763400  0.61231000  0.93419700  1
  C  85  1  0.65051200  0.40742200  0.93021600  1
  C  86  1  0.73933600  0.49086500  0.08759600  1
  C  91  1  0.91104800  0.51151400  0.35079900  1
  C  92  1  0.91237700  0.47211200  0.30705000  1
  C  93  1  0.89291900  0.47405700  0.26833900  1
  C  94  1  0.87218400  0.51557600  0.27223600  1
  C  95  1  0.87024800  0.55489300  0.31605000  1
  C  96  1  0.88855000  0.55269500  0.35488300  1
  C  99  1  0.85261000  0.51721100  0.23273800  1
  C  100  1  0.78900200  0.52861000  0.22859500  1
  C  101  1  0.76971700  0.52797300  0.18826000  1
  C  102  1  0.81160200  0.51527200  0.15128800  1
  C  103  1  0.87516800  0.50586900  0.15669500  1
  C  104  1  0.89613900  0.50632300  0.19662900  1
  C  119  1  0.22999700  0.87821400  0.55514200  1
  C  120  1  0.20294100  0.88552500  0.59639200  1
  C  121  1  0.16605200  0.85135800  0.59734100  1
  C  122  1  0.15609200  0.80886500  0.55724400  1
  C  123  1  0.18582600  0.80104300  0.51646500  1
  C  124  1  0.22133200  0.83562100  0.51524900  1
  C  127  1  0.10829800  0.77858800  0.55666200  1
  C  128  1  0.05241000  0.77158800  0.53047100  1
  C  129  1  0.00119000  0.74715200  0.53479900  1
  C  130  1  0.00230400  0.73030200  0.56546800  1
  C  131  1  0.05894900  0.73620400  0.59012500  1
  C  132  1  0.11173000  0.75999300  0.58610700  1
  C  147  1  0.58613900  0.73335900  0.17181000  1
  C  148  1  0.55143500  0.76701100  0.16794700  1
  C  149  1  0.51460200  0.79924900  0.20456200  1
  C  150  1  0.51221400  0.79928700  0.24634300  1
  C  151  1  0.54995400  0.76729400  0.25101700  1
  C  152  1  0.58540500  0.73423600  0.21394600  1
  C  155  1  0.46329700  0.82446400  0.27844100  1
  C  156  1  0.41282300  0.80033900  0.28479900  1
  C  157  1  0.35860000  0.82437900  0.30971800  1
  C  158  1  0.35144400  0.87179700  0.32758800  1
  C  159  1  0.40307800  0.89555400  0.32258100  1
  C  160  1  0.45863800  0.87259700  0.29831800  1
  C  175  1  0.92105400  0.58586900  0.72391900  1
  C  176  1  0.88791300  0.62504300  0.75648000  1
  C  177  1  0.85058500  0.62377300  0.79025000  1
  C  178  1  0.84593100  0.58348000  0.79289300  1
  C  179  1  0.88172300  0.54501900  0.76179300  1
  C  180  1  0.91773700  0.54596900  0.72725000  1
  C  183  1  0.79667200  0.57972300  0.81988800  1
  C  184  1  0.74462000  0.55011700  0.79761700  1
  C  185  1  0.69040700  0.55228800  0.82312300  1
  C  186  1  0.68493900  0.58393300  0.87020200  1
  C  187  1  0.73802900  0.61179400  0.89224300  1
  C  188  1  0.79355500  0.61014400  0.86776700  1
  C  203  1  0.26300600  0.17384300  0.48197200  1
  C  204  1  0.25296800  0.17816700  0.44296300  1
  C  205  1  0.23425400  0.21998000  0.44717900  1
  C  206  1  0.22475800  0.25878700  0.49060700  1
  C  207  1  0.23447800  0.25465000  0.52967800  1
  C  208  1  0.25267900  0.21265500  0.52533100  1
  C  211  1  0.20267100  0.30037000  0.49443200  1
  C  212  1  0.14122800  0.31712600  0.51219800  1
  C  213  1  0.11861200  0.35706200  0.51340200  1
  C  214  1  0.15496300  0.38045700  0.49653200  1
  C  215  1  0.21673100  0.36431300  0.48059500  1
  C  216  1  0.24084400  0.32446900  0.47889600  1
  C  231  1  0.57042500  0.36362100  0.87354800  1
  C  232  1  0.57887300  0.31996100  0.86871600  1
  C  233  1  0.55390500  0.28077800  0.83092100  1
  C  234  1  0.51978800  0.28411800  0.79677900  1
  C  235  1  0.51067000  0.32774300  0.80173600  1
  C  236  1  0.53497500  0.36698200  0.83991800  1
  C  239  1  0.49387800  0.24427700  0.75889200  1
  C  240  1  0.42710000  0.23901500  0.75274000  1
  C  241  1  0.40220200  0.19872600  0.71562500  1
  C  242  1  0.44179800  0.16292400  0.68475300  1
  C  243  1  0.50803500  0.16916200  0.69076900  1
  C  244  1  0.53456700  0.20912500  0.72739500  1
  C  517  1  0.53446700  0.58165100  0.56110800  1
  C  518  1  0.52937400  0.58157100  0.60285300  1
  C  519  1  0.51229500  0.62057300  0.64452000  1
  C  520  1  0.49526100  0.66144700  0.64474700  1
  C  521  1  0.49827100  0.66229400  0.60309300  1
  C  522  1  0.52079400  0.62367900  0.56312800  1
  C  525  1  0.54543000  0.53976100  0.51817900  1
  C  526  1  0.57673900  0.50160900  0.51593200  1
  C  527  1  0.58036300  0.45882000  0.47540700  1
  C  528  1  0.55659400  0.45383900  0.43370500  1
  C  529  1  0.52793500  0.49231200  0.43433200  1
  C  530  1  0.52130300  0.53346800  0.47630600  1
  C  539  1  0.50945000  0.49178500  0.39350700  1
  C  540  1  0.59997800  0.42074100  0.47942000  1
  C  541  1  0.50663600  0.61634900  0.68423300  1
  C  542  1  0.45863000  0.69267900  0.59673700  1
  C  547  1  0.86859280  0.00967600  0.47971800  1
  C  548  1  0.86246880  0.05210800  0.48125500  1
  C  549  1  0.84528680  0.05553900  0.44274900  1
  C  550  1  0.82974380  0.01535200  0.40106200  1
  C  551  1  0.83392580  0.97234300  0.39902900  1
  C  552  1  0.85557580  0.97006500  0.43734500  1
  C  555  1  0.88075380  0.00777300  0.52078900  1
  C  556  1  0.91749180  0.04145800  0.55684300  1
  C  557  1  0.92382380  0.04343700  0.59933500  1
  C  558  1  0.89398380  0.00970200  0.60654500  1
  C  559  1  0.86117980  0.97296100  0.56937800  1
  C  560  1  0.85424780  0.97347900  0.52801700  1
  C  569  1  0.83639680  0.93488800  0.57192000  1
  C  570  1  0.95892380  0.08073000  0.63372300  1
  C  571  1  0.84086080  0.09970800  0.44771400  1
  C  572  1  0.79855600  0.93447900  0.36604700  1
  C  577  1  0.21245200  0.53154200  0.00846000  1
  C  578  1  0.18843000  0.49003800  0.97227500  1
  C  579  1  0.19583600  0.44766400  0.97046100  1
  C  580  1  0.22510700  0.44609200  0.00762500  1
  C  581  1  0.24741900  0.48761800  0.04539800  1
  C  582  1  0.24323000  0.52868100  0.04417200  1
  C  585  1  0.20154700  0.57483500  0.01042600  1
  C  586  1  0.19079200  0.57779400  0.97064600  1
  C  587  1  0.16879200  0.61810500  0.97247300  1
  C  588  1  0.16269500  0.65899600  0.01543000  1
  C  589  1  0.17704600  0.65780900  0.05600000  1
  C  590  1  0.19429800  0.61585800  0.05264200  1
  C  599  1  0.16935900  0.69678100  0.10031400  1
  C  600  1  0.13326000  0.61231000  0.93419700  1
  C  601  1  0.17613800  0.40742200  0.93021600  1
  C  602  1  0.26496200  0.49086500  0.08759600  1
  C  607  1  0.43667400  0.51151400  0.35079900  1
  C  608  1  0.43800300  0.47211200  0.30705000  1
  C  609  1  0.41854500  0.47405700  0.26833900  1
  C  610  1  0.39781000  0.51557600  0.27223600  1
  C  611  1  0.39587400  0.55489300  0.31605000  1
  C  612  1  0.41417600  0.55269500  0.35488300  1
  C  615  1  0.37823600  0.51721100  0.23273800  1
  C  616  1  0.31462800  0.52861000  0.22859500  1
  C  617  1  0.29534300  0.52797300  0.18826000  1
  C  618  1  0.33722800  0.51527200  0.15128800  1
  C  619  1  0.40079400  0.50586900  0.15669500  1
  C  620  1  0.42176500  0.50632300  0.19662900  1
  C  635  1  0.75562300  0.87821400  0.55514200  1
  C  636  1  0.72856700  0.88552500  0.59639200  1
  C  637  1  0.69167800  0.85135800  0.59734100  1
  C  638  1  0.68171800  0.80886500  0.55724400  1
  C  639  1  0.71145200  0.80104300  0.51646500  1
  C  640  1  0.74695800  0.83562100  0.51524900  1
  C  643  1  0.63392400  0.77858800  0.55666200  1
  C  644  1  0.57803600  0.77158800  0.53047100  1
  C  645  1  0.52681600  0.74715200  0.53479900  1
  C  646  1  0.52793000  0.73030200  0.56546800  1
  C  647  1  0.58457500  0.73620400  0.59012500  1
  C  648  1  0.63735600  0.75999300  0.58610700  1
  C  663  1  0.11176500  0.73335900  0.17181000  1
  C  664  1  0.07706100  0.76701100  0.16794700  1
  C  665  1  0.04022800  0.79924900  0.20456200  1
  C  666  1  0.03784000  0.79928700  0.24634300  1
  C  667  1  0.07558000  0.76729400  0.25101700  1
  C  668  1  0.11103100  0.73423600  0.21394600  1
  C  671  1  0.98892285  0.82446400  0.27844100  1
  C  672  1  0.93844880  0.80033900  0.28479900  1
  C  673  1  0.88422580  0.82437900  0.30971800  1
  C  674  1  0.87706980  0.87179700  0.32758800  1
  C  675  1  0.92870380  0.89555400  0.32258100  1
  C  676  1  0.98426385  0.87259700  0.29831800  1
  C  691  1  0.44668000  0.58586900  0.72391900  1
  C  692  1  0.41353900  0.62504300  0.75648000  1
  C  693  1  0.37621100  0.62377300  0.79025000  1
  C  694  1  0.37155700  0.58348000  0.79289300  1
  C  695  1  0.40734900  0.54501900  0.76179300  1
  C  696  1  0.44336300  0.54596900  0.72725000  1
  C  699  1  0.32229800  0.57972300  0.81988800  1
  C  700  1  0.27024600  0.55011700  0.79761700  1
  C  701  1  0.21603300  0.55228800  0.82312300  1
  C  702  1  0.21056500  0.58393300  0.87020200  1
  C  703  1  0.26365500  0.61179400  0.89224300  1
  C  704  1  0.31918100  0.61014400  0.86776700  1
  C  719  1  0.78863200  0.17384300  0.48197200  1
  C  720  1  0.77859400  0.17816700  0.44296300  1
  C  721  1  0.75988000  0.21998000  0.44717900  1
  C  722  1  0.75038400  0.25878700  0.49060700  1
  C  723  1  0.76010400  0.25465000  0.52967800  1
  C  724  1  0.77830500  0.21265500  0.52533100  1
  C  727  1  0.72829700  0.30037000  0.49443200  1
  C  728  1  0.66685400  0.31712600  0.51219800  1
  C  729  1  0.64423800  0.35706200  0.51340200  1
  C  730  1  0.68058900  0.38045700  0.49653200  1
  C  731  1  0.74235700  0.36431300  0.48059500  1
  C  732  1  0.76647000  0.32446900  0.47889600  1
  C  747  1  0.09605100  0.36362100  0.87354800  1
  C  748  1  0.10449900  0.31996100  0.86871600  1
  C  749  1  0.07953100  0.28077800  0.83092100  1
  C  750  1  0.04541400  0.28411800  0.79677900  1
  C  751  1  0.03629600  0.32774300  0.80173600  1
  C  752  1  0.06060100  0.36698200  0.83991800  1
  C  755  1  0.01950400  0.24427700  0.75889200  1
  C  756  1  0.95272580  0.23901500  0.75274000  1
  C  757  1  0.92782780  0.19872600  0.71562500  1
  C  758  1  0.96742380  0.16292400  0.68475300  1
  C  759  1  0.03366100  0.16916200  0.69076900  1
  C  760  1  0.06019300  0.20912500  0.72739500  1
  H  7  1  0.01079100  0.55191200  0.60318700  1
  H  16  1  0.97245600  0.55963900  0.47585800  1
  H  17  1  0.05828800  0.38720000  0.39220700  1
  H  18  1  0.01555800  0.40756200  0.36595700  1
  H  19  1  0.93942500  0.72762000  0.68423900  1
  H  20  1  0.94119500  0.69921700  0.71174200  1
  H  21  1  0.99672600  0.62565600  0.53403000  1
  H  22  1  0.06990600  0.50417200  0.54494400  1
  H  37  1  0.34358200  0.08170100  0.51149300  1
  H  46  1  0.30272100  0.94812900  0.50247600  1
  H  47  1  0.38476900  0.04097500  0.67541600  1
  H  48  1  0.34149400  0.99488000  0.65592400  1
  H  49  1  0.27571500  0.99031700  0.33474700  1
  H  50  1  0.27789400  0.04628600  0.36450000  1
  H  51  1  0.33181900  0.93877500  0.43497300  1
  H  52  1  0.41476400  0.06551000  0.55221300  1
  H  67  1  0.63901000  0.49020800  0.94610100  1
  H  76  1  0.67419700  0.61530800  0.08231200  1
  H  77  1  0.60845900  0.69945200  0.98945100  1
  H  78  1  0.60603100  0.72544900  0.04530400  1
  H  79  1  0.73016100  0.40331500  0.03033400  1
  H  80  1  0.68804500  0.37740100  0.98340200  1
  H  81  1  0.73540200  0.55764700  0.07124200  1
  H  82  1  0.66840600  0.54904100  0.93934300  1
  H  97  1  0.85554100  0.58546900  0.32000700  1
  H  98  1  0.88688800  0.58166500  0.38617500  1
  H  105  1  0.72402600  0.53673100  0.18590000  1
  H  106  1  0.90659300  0.49726100  0.13058700  1
  H  107  1  0.92632000  0.44147200  0.30325400  1
  H  108  1  0.89355000  0.44476300  0.23726200  1
  H  116  1  0.82360800  0.52140000  0.09548000  1
  H  118  1  0.89917000  0.52358100  0.41466600  1
  H  125  1  0.17813600  0.77120900  0.48661400  1
  H  126  1  0.23879000  0.83022800  0.48474600  1
  H  133  1  0.96043200  0.74416300  0.51704500  1
  H  134  1  0.06094000  0.72582200  0.61367900  1
  H  135  1  0.20602900  0.91691700  0.62512800  1
  H  136  1  0.14287100  0.85900900  0.62688600  1
  H  144  1  0.90773300  0.72782200  0.56744700  1
  H  146  1  0.22783400  0.92687700  0.53860500  1
  H  153  1  0.54754600  0.76535000  0.28018300  1
  H  154  1  0.60795100  0.70916700  0.21705500  1
  H  161  1  0.32144000  0.80608800  0.31191400  1
  H  162  1  0.39881500  0.92952500  0.33355300  1
  H  163  1  0.54743600  0.76535800  0.13705200  1
  H  164  1  0.48522000  0.82006200  0.19901400  1
  H  172  1  0.25672800  0.86866300  0.32757000  1
  H  174  1  0.59064100  0.66677900  0.12744900  1
  H  181  1  0.87771000  0.51487900  0.76175300  1
  H  182  1  0.93909400  0.51662900  0.70305900  1
  H  189  1  0.65221600  0.53228700  0.80607700  1
  H  190  1  0.73500700  0.63616400  0.92588500  1
  H  191  1  0.88583100  0.65342000  0.75315800  1
  H  192  1  0.82269700  0.65138900  0.81043500  1
  H  200  1  0.59018600  0.58356900  0.86843700  1
  H  202  1  0.92518500  0.56056800  0.65674800  1
  H  209  1  0.22740200  0.28203400  0.56158500  1
  H  210  1  0.25829800  0.21047600  0.55419300  1
  H  217  1  0.07455000  0.36900600  0.52663200  1
  H  218  1  0.24417800  0.38101900  0.46864100  1
  H  219  1  0.25646500  0.15033800  0.41100300  1
  H  220  1  0.22565400  0.22149500  0.41821200  1
  H  228  1  0.16307900  0.44192300  0.50099700  1
  H  230  1  0.25295900  0.12571700  0.49962400  1
  H  237  1  0.48603600  0.33127300  0.77763700  1
  H  238  1  0.52748400  0.39815000  0.84275200  1
  H  245  1  0.35401500  0.19507500  0.71175900  1
  H  246  1  0.53783800  0.14472100  0.66762700  1
  H  247  1  0.60184200  0.31651600  0.89342500  1
  H  248  1  0.55999300  0.24982000  0.82888700  1
  H  256  1  0.37530500  0.12916200  0.63693100  1
  H  258  1  0.56238200  0.42790300  0.92556000  1
  H  523  1  0.53641700  0.55191200  0.60318700  1
  H  532  1  0.49808200  0.55963900  0.47585800  1
  H  533  1  0.58391400  0.38720000  0.39220700  1
  H  534  1  0.54118400  0.40756200  0.36595700  1
  H  535  1  0.46505100  0.72762000  0.68423900  1
  H  536  1  0.46682100  0.69921700  0.71174200  1
  H  537  1  0.52235200  0.62565600  0.53403000  1
  H  538  1  0.59553200  0.50417200  0.54494400  1
  H  553  1  0.86920780  0.08170100  0.51149300  1
  H  562  1  0.82834680  0.94812900  0.50247600  1
  H  563  1  0.91039480  0.04097500  0.67541600  1
  H  564  1  0.86711980  0.99488000  0.65592400  1
  H  565  1  0.80134080  0.99031700  0.33474700  1
  H  566  1  0.80351980  0.04628600  0.36450000  1
  H  567  1  0.85744480  0.93877500  0.43497300  1
  H  568  1  0.94038980  0.06551000  0.55221300  1
  H  583  1  0.16463600  0.49020800  0.94610100  1
  H  592  1  0.19982300  0.61530800  0.08231200  1
  H  593  1  0.13408500  0.69945200  0.98945100  1
  H  594  1  0.13165700  0.72544900  0.04530400  1
  H  595  1  0.25578700  0.40331500  0.03033400  1
  H  596  1  0.21367100  0.37740100  0.98340200  1
  H  597  1  0.26102800  0.55764700  0.07124200  1
  H  598  1  0.19403200  0.54904100  0.93934300  1
  H  613  1  0.38116700  0.58546900  0.32000700  1
  H  614  1  0.41251400  0.58166500  0.38617500  1
  H  621  1  0.24965200  0.53673100  0.18590000  1
  H  622  1  0.43221900  0.49726100  0.13058700  1
  H  623  1  0.45194600  0.44147200  0.30325400  1
  H  624  1  0.41917600  0.44476300  0.23726200  1
  H  632  1  0.34923400  0.52140000  0.09548000  1
  H  634  1  0.42479600  0.52358100  0.41466600  1
  H  641  1  0.70376200  0.77120900  0.48661400  1
  H  642  1  0.76441600  0.83022800  0.48474600  1
  H  649  1  0.48605800  0.74416300  0.51704500  1
  H  650  1  0.58656600  0.72582200  0.61367900  1
  H  651  1  0.73165500  0.91691700  0.62512800  1
  H  652  1  0.66849700  0.85900900  0.62688600  1
  H  660  1  0.43335900  0.72782200  0.56744700  1
  H  662  1  0.75346000  0.92687700  0.53860500  1
  H  669  1  0.07317200  0.76535000  0.28018300  1
  H  670  1  0.13357700  0.70916700  0.21705500  1
  H  677  1  0.84706580  0.80608800  0.31191400  1
  H  678  1  0.92444080  0.92952500  0.33355300  1
  H  679  1  0.07306200  0.76535800  0.13705200  1
  H  680  1  0.01084600  0.82006200  0.19901400  1
  H  688  1  0.78235400  0.86866300  0.32757000  1
  H  690  1  0.11626700  0.66677900  0.12744900  1
  H  697  1  0.40333600  0.51487900  0.76175300  1
  H  698  1  0.46472000  0.51662900  0.70305900  1
  H  705  1  0.17784200  0.53228700  0.80607700  1
  H  706  1  0.26063300  0.63616400  0.92588500  1
  H  707  1  0.41145700  0.65342000  0.75315800  1
  H  708  1  0.34832300  0.65138900  0.81043500  1
  H  716  1  0.11581200  0.58356900  0.86843700  1
  H  718  1  0.45081100  0.56056800  0.65674800  1
  H  725  1  0.75302800  0.28203400  0.56158500  1
  H  726  1  0.78392400  0.21047600  0.55419300  1
  H  733  1  0.60017600  0.36900600  0.52663200  1
  H  734  1  0.76980400  0.38101900  0.46864100  1
  H  735  1  0.78209100  0.15033800  0.41100300  1
  H  736  1  0.75128000  0.22149500  0.41821200  1
  H  744  1  0.68870500  0.44192300  0.50099700  1
  H  746  1  0.77858500  0.12571700  0.49962400  1
  H  753  1  0.01166200  0.33127300  0.77763700  1
  H  754  1  0.05311000  0.39815000  0.84275200  1
  H  761  1  0.87964080  0.19507500  0.71175900  1
  H  762  1  0.06346400  0.14472100  0.66762700  1
  H  763  1  0.12746800  0.31651600  0.89342500  1
  H  764  1  0.08561900  0.24982000  0.82888700  1
  H  772  1  0.90093080  0.12916200  0.63693100  1
  H  774  1  0.08800800  0.42790300  0.92556000  1
  N  8  1  0.94795900  0.69899300  0.68335600  1
  N  15  1  0.03533000  0.41290500  0.39406400  1
  N  38  1  0.28364600  0.01758300  0.36390200  1
  N  45  1  0.36748300  0.01428800  0.64902900  1
  N  68  1  0.70586400  0.40573100  0.00730000  1
  N  75  1  0.61527200  0.69779400  0.01695800  1
  N  109  1  0.96027600  0.49659300  0.20109800  1
  N  110  1  0.74486700  0.53908100  0.26408600  1
  N  115  1  0.79264500  0.51274000  0.11122000  1
  N  117  1  0.92852000  0.51003600  0.38899100  1
  N  137  1  0.16768400  0.76627700  0.61178000  1
  N  138  1  0.04598500  0.79169800  0.50262600  1
  N  143  1  0.94567400  0.71566700  0.57422400  1
  N  145  1  0.25526900  0.91364200  0.55209600  1
  N  165  1  0.50910000  0.89687500  0.29250200  1
  N  166  1  0.41436200  0.75207300  0.26341100  1
  N  171  1  0.29172500  0.89019400  0.34168900  1
  N  173  1  0.60912400  0.69577100  0.13376900  1
  N  193  1  0.84555600  0.63939900  0.89021400  1
  N  194  1  0.74470500  0.52106300  0.74958700  1
  N  199  1  0.62555700  0.59080900  0.88964800  1
  N  201  1  0.94484800  0.58347500  0.68512500  1
  N  221  1  0.30280200  0.30862800  0.46227100  1
  N  222  1  0.10232600  0.29299600  0.52713400  1
  N  227  1  0.13240200  0.41818000  0.49572300  1
  N  229  1  0.27600900  0.13256700  0.47876000  1
  N  249  1  0.60125700  0.21485400  0.73229500  1
  N  250  1  0.38600200  0.27350200  0.78432600  1
  N  255  1  0.41498400  0.12468800  0.64909400  1
  N  257  1  0.59202800  0.40244000  0.91112900  1
  N  524  1  0.47358500  0.69899300  0.68335600  1
  N  531  1  0.56095600  0.41290500  0.39406400  1
  N  554  1  0.80927180  0.01758300  0.36390200  1
  N  561  1  0.89310880  0.01428800  0.64902900  1
  N  584  1  0.23149000  0.40573100  0.00730000  1
  N  591  1  0.14089800  0.69779400  0.01695800  1
  N  625  1  0.48590200  0.49659300  0.20109800  1
  N  626  1  0.27049300  0.53908100  0.26408600  1
  N  631  1  0.31827100  0.51274000  0.11122000  1
  N  633  1  0.45414600  0.51003600  0.38899100  1
  N  653  1  0.69331000  0.76627700  0.61178000  1
  N  654  1  0.57161100  0.79169800  0.50262600  1
  N  659  1  0.47130000  0.71566700  0.57422400  1
  N  661  1  0.78089500  0.91364200  0.55209600  1
  N  681  1  0.03472600  0.89687500  0.29250200  1
  N  682  1  0.93998780  0.75207300  0.26341100  1
  N  687  1  0.81735080  0.89019400  0.34168900  1
  N  689  1  0.13475000  0.69577100  0.13376900  1
  N  709  1  0.37118200  0.63939900  0.89021400  1
  N  710  1  0.27033100  0.52106300  0.74958700  1
  N  715  1  0.15118300  0.59080900  0.88964800  1
  N  717  1  0.47047400  0.58347500  0.68512500  1
  N  737  1  0.82842780  0.30862800  0.46227100  1
  N  738  1  0.62795200  0.29299600  0.52713400  1
  N  743  1  0.65802800  0.41818000  0.49572300  1
  N  745  1  0.80163480  0.13256700  0.47876000  1
  N  765  1  0.12688300  0.21485400  0.73229500  1
  N  766  1  0.91162780  0.27350200  0.78432600  1
  N  771  1  0.94060980  0.12468800  0.64909400  1
  N  773  1  0.11765400  0.40244000  0.91112900  1
  O  27  1  0.02890700  0.47880300  0.36080300  1
  O  28  1  0.03224400  0.38601100  0.46506200  1
  O  29  1  0.01186300  0.64708400  0.72245100  1
  O  30  1  0.87068000  0.68895400  0.60426600  1
  O  57  1  0.34897200  0.91553000  0.58971000  1
  O  58  1  0.48170200  0.07069900  0.65351000  1
  O  59  1  0.35384400  0.10842000  0.42102300  1
  O  60  1  0.20949200  0.94186900  0.36854800  1
  O  87  1  0.67358600  0.73582700  0.10931100  1
  O  88  1  0.54439500  0.61876400  0.94206800  1
  O  89  1  0.69589200  0.37559400  0.90777700  1
  O  90  1  0.69818400  0.47249100  0.10470900  1
  O  111  1  0.69973800  0.51109200  0.25075000  1
  O  112  1  0.97567700  0.45709800  0.17060000  1
  O  113  1  0.99736200  0.52476600  0.19942300  1
  O  114  1  0.72267400  0.57858900  0.27986200  1
  O  139  1  0.00191500  0.82055100  0.51610700  1
  O  140  1  0.15688400  0.78796300  0.65392200  1
  O  141  1  0.19259800  0.72869700  0.60176100  1
  O  142  1  0.03630000  0.76220700  0.46163900  1
  O  167  1  0.37071800  0.73376800  0.23455100  1
  O  168  1  0.49137800  0.91708300  0.27179200  1
  O  169  1  0.53228000  0.92573100  0.33025000  1
  O  170  1  0.41061300  0.73884400  0.29201800  1
  O  195  1  0.70161300  0.53129700  0.73062400  1
  O  196  1  0.82994600  0.68068700  0.90868500  1
  O  197  1  0.86836300  0.63198800  0.92017800  1
  O  198  1  0.73874100  0.47991400  0.73867100  1
  O  223  1  0.05228200  0.27902700  0.50400800  1
  O  224  1  0.30871200  0.29903000  0.42149300  1
  O  225  1  0.34411800  0.33764200  0.48593700  1
  O  226  1  0.08780600  0.31724200  0.56848700  1
  O  251  1  0.35083200  0.25889100  0.80417900  1
  O  252  1  0.62669900  0.18429500  0.73765600  1
  O  253  1  0.62605300  0.21451000  0.69838300  1
  O  254  1  0.35179500  0.28943600  0.76520900  1
  O  543  1  0.55453300  0.47880300  0.36080300  1
  O  544  1  0.55787000  0.38601100  0.46506200  1
  O  545  1  0.53748900  0.64708400  0.72245100  1
  O  546  1  0.39630600  0.68895400  0.60426600  1
  O  573  1  0.87459780  0.91553000  0.58971000  1
  O  574  1  0.00732800  0.07069900  0.65351000  1
  O  575  1  0.87946980  0.10842000  0.42102300  1
  O  576  1  0.73511800  0.94186900  0.36854800  1
  O  603  1  0.19921200  0.73582700  0.10931100  1
  O  604  1  0.07002100  0.61876400  0.94206800  1
  O  605  1  0.22151800  0.37559400  0.90777700  1
  O  606  1  0.22381000  0.47249100  0.10470900  1
  O  627  1  0.22536400  0.51109200  0.25075000  1
  O  628  1  0.50130300  0.45709800  0.17060000  1
  O  629  1  0.52298800  0.52476600  0.19942300  1
  O  630  1  0.24830000  0.57858900  0.27986200  1
  O  655  1  0.52754100  0.82055100  0.51610700  1
  O  656  1  0.68251000  0.78796300  0.65392200  1
  O  657  1  0.71822400  0.72869700  0.60176100  1
  O  658  1  0.56192600  0.76220700  0.46163900  1
  O  683  1  0.89634380  0.73376800  0.23455100  1
  O  684  1  0.01700400  0.91708300  0.27179200  1
  O  685  1  0.05790600  0.92573100  0.33025000  1
  O  686  1  0.93623880  0.73884400  0.29201800  1
  O  711  1  0.22723900  0.53129700  0.73062400  1
  O  712  1  0.35557200  0.68068700  0.90868500  1
  O  713  1  0.39398900  0.63198800  0.92017800  1
  O  714  1  0.26436700  0.47991400  0.73867100  1
  O  739  1  0.57790800  0.27902700  0.50400800  1
  O  740  1  0.83433780  0.29903000  0.42149300  1
  O  741  1  0.86974380  0.33764200  0.48593700  1
  O  742  1  0.61343200  0.31724200  0.56848700  1
  O  767  1  0.87645780  0.25889100  0.80417900  1
  O  768  1  0.15232500  0.18429500  0.73765600  1
  O  769  1  0.15167900  0.21451000  0.69838300  1
  O  770  1  0.87742080  0.28943600  0.76520900  1
