# generated using pymatgen
data_Cu3H4(C2N3)2
_symmetry_space_group_name_H-M   'P 1'
_cell_length_a   6.92989000
_cell_length_b   19.01401000
_cell_length_c   19.69552000
_cell_angle_alpha   89.04575000
_cell_angle_beta   84.45273000
_cell_angle_gamma   88.99099000
_symmetry_Int_Tables_number   1
_chemical_formula_structural   Cu3H4(C2N3)2
_chemical_formula_sum   'Cu24 H32 C32 N48'
_cell_volume   2582.33432461
_cell_formula_units_Z   8
loop_
 _symmetry_equiv_pos_site_id
 _symmetry_equiv_pos_as_xyz
  1  'x, y, z'
loop_
 _atom_site_type_symbol
 _atom_site_label
 _atom_site_symmetry_multiplicity
 _atom_site_fract_x
 _atom_site_fract_y
 _atom_site_fract_z
 _atom_site_occupancy
  Cu  Cu0  1  0.45782000  0.71345000  0.73092000  1
  Cu  Cu1  1  0.51329000  0.86093000  0.75095000  1
  Cu  Cu2  1  0.30490000  0.23933000  0.22616000  1
  Cu  Cu3  1  0.19665000  0.28331000  0.33935000  1
  Cu  Cu4  1  0.32897000  0.78958000  0.83224000  1
  Cu  Cu5  1  0.49540000  0.80856000  0.63482000  1
  Cu  Cu6  1  0.20526000  0.36829000  0.23938000  1
  Cu  Cu7  1  0.84842000  0.16121000  0.27615000  1
  Cu  Cu8  1  0.25714000  0.55718000  0.48139000  1
  Cu  Cu9  1  0.21783000  0.02469000  0.02874000  1
  Cu  Cu10  1  0.20574000  0.52420000  0.97358000  1
  Cu  Cu11  1  0.85444000  0.08312000  0.55478000  1
  Cu  Cu12  1  0.67199000  0.22462000  0.19537000  1
  Cu  Cu13  1  0.50474000  0.19679000  0.32111000  1
  Cu  Cu14  1  0.75309000  0.63673000  0.75774000  1
  Cu  Cu15  1  0.18788000  0.82242000  0.72474000  1
  Cu  Cu16  1  0.51241000  0.32132000  0.27597000  1
  Cu  Cu17  1  0.53609000  0.11180000  0.22769000  1
  Cu  Cu18  1  0.71418000  0.75868000  0.79021000  1
  Cu  Cu19  1  0.79599000  0.72894000  0.67024000  1
  Cu  Cu20  1  0.76491000  0.47066000  0.01793000  1
  Cu  Cu21  1  0.14326000  0.92242000  0.44898000  1
  Cu  Cu22  1  0.71423000  0.42469000  0.53908000  1
  Cu  Cu23  1  0.84312000  0.98962000  0.96325000  1
  H  H24  1  0.26042000  0.57120000  0.64144000  1
  H  H25  1  0.41268000  0.71517000  0.48105000  1
  H  H26  1  0.48262000  0.03154000  0.88911000  1
  H  H27  1  0.20130000  0.86141000  0.99302000  1
  H  H28  1  0.32967000  0.17801000  0.07027000  1
  H  H29  1  0.94395000  0.03144000  0.16892000  1
  H  H30  1  0.17976000  0.39637000  0.48658000  1
  H  H31  1  0.17429000  0.54048000  0.32253000  1
  H  H32  1  0.08823000  0.68306000  0.95860000  1
  H  H33  1  0.34356000  0.54144000  0.81327000  1
  H  H34  1  0.67811000  0.94664000  0.52131000  1
  H  H35  1  0.77857000  0.02190000  0.71486000  1
  H  H36  1  0.10332000  0.50387000  0.13702000  1
  H  H37  1  0.38132000  0.37238000  0.98743000  1
  H  H38  1  0.74234000  0.08626000  0.41616000  1
  H  H39  1  0.11528000  0.22788000  0.49873000  1
  H  H40  1  0.91189000  0.31344000  0.05829000  1
  H  H41  1  0.59805000  0.47240000  0.16900000  1
  H  H42  1  0.27173000  0.07499000  0.46389000  1
  H  H43  1  0.28799000  0.95321000  0.28677000  1
  H  H44  1  0.84690000  0.49485000  0.85296000  1
  H  H45  1  0.59773000  0.62192000  0.01162000  1
  H  H46  1  0.23726000  0.92226000  0.59062000  1
  H  H47  1  0.88859000  0.77490000  0.50403000  1
  H  H48  1  0.70403000  0.43427000  0.38728000  1
  H  H49  1  0.59127000  0.25818000  0.51638000  1
  H  H50  1  0.58389000  0.98323000  0.10268000  1
  H  H51  1  0.84789000  0.15531000  0.99611000  1
  H  H52  1  0.70426000  0.83872000  0.93690000  1
  H  H53  1  0.11385000  0.96386000  0.82087000  1
  H  H54  1  0.82618000  0.57889000  0.51373000  1
  H  H55  1  0.75357000  0.46446000  0.69879000  1
  C  C56  1  0.31173000  0.61736000  0.61289000  1
  C  C57  1  0.38901000  0.69081000  0.53112000  1
  C  C58  1  0.42907000  0.97932000  0.90172000  1
  C  C59  1  0.28707000  0.89262000  0.95530000  1
  C  C60  1  0.22823000  0.15174000  0.10700000  1
  C  C61  1  0.03510000  0.07657000  0.15818000  1
  C  C62  1  0.16717000  0.41893000  0.43639000  1
  C  C63  1  0.16572000  0.49244000  0.35275000  1
  C  C64  1  0.15824000  0.66097000  0.91216000  1
  C  C65  1  0.28541000  0.58881000  0.83763000  1
  C  C66  1  0.68083000  0.95144000  0.57591000  1
  C  C67  1  0.73239000  0.99003000  0.67457000  1
  C  C68  1  0.17821000  0.45987000  0.11160000  1
  C  C69  1  0.31846000  0.39218000  0.03593000  1
  C  C70  1  0.84748000  0.12666000  0.42172000  1
  C  C71  1  0.03518000  0.19928000  0.46396000  1
  C  C72  1  0.82783000  0.34190000  0.09833000  1
  C  C73  1  0.67182000  0.42327000  0.15557000  1
  C  C74  1  0.30158000  0.05730000  0.41194000  1
  C  C75  1  0.30929000  0.99511000  0.32174000  1
  C  C76  1  0.77992000  0.53856000  0.88131000  1
  C  C77  1  0.65465000  0.60408000  0.96161000  1
  C  C78  1  0.14177000  0.87902000  0.58392000  1
  C  C79  1  0.96611000  0.80369000  0.53947000  1
  C  C80  1  0.66319000  0.38233000  0.40619000  1
  C  C81  1  0.60482000  0.29248000  0.47184000  1
  C  C82  1  0.63425000  0.03557000  0.08886000  1
  C  C83  1  0.76724000  0.12371000  0.03487000  1
  C  C84  1  0.80852000  0.85837000  0.89710000  1
  C  C85  1  0.01276000  0.92281000  0.83682000  1
  C  C86  1  0.81820000  0.56512000  0.56746000  1
  C  C87  1  0.77971000  0.50647000  0.66148000  1
  N  N88  1  0.36867000  0.67508000  0.64148000  1
  N  N89  1  0.41835000  0.72256000  0.58887000  1
  N  N90  1  0.32200000  0.62422000  0.54327000  1
  N  N91  1  0.46012000  0.92423000  0.86118000  1
  N  N92  1  0.36817000  0.86828000  0.89600000  1
  N  N93  1  0.32048000  0.96266000  0.96175000  1
  N  N94  1  0.17130000  0.17772000  0.16827000  1
  N  N95  1  0.04320000  0.12985000  0.20094000  1
  N  N96  1  0.14818000  0.08788000  0.09855000  1
  N  N97  1  0.13175000  0.38227000  0.38234000  1
  N  N98  1  0.13085000  0.42957000  0.32789000  1
  N  N99  1  0.19074000  0.48896000  0.42090000  1
  N  N100  1  0.20687000  0.69837000  0.85560000  1
  N  N101  1  0.28785000  0.65173000  0.80710000  1
  N  N102  1  0.20425000  0.59150000  0.90366000  1
  N  N103  1  0.60921000  0.90419000  0.62161000  1
  N  N104  1  0.64191000  0.92931000  0.68512000  1
  N  N105  1  0.75998000  0.00664000  0.60657000  1
  N  N106  1  0.22050000  0.39945000  0.14286000  1
  N  N107  1  0.31114000  0.35539000  0.09389000  1
  N  N108  1  0.23696000  0.45844000  0.04349000  1
  N  N109  1  0.92386000  0.16623000  0.37013000  1
  N  N110  1  0.04409000  0.21306000  0.39721000  1
  N  N111  1  0.91370000  0.14486000  0.48206000  1
  N  N112  1  0.77752000  0.31518000  0.16032000  1
  N  N113  1  0.67730000  0.36795000  0.19750000  1
  N  N114  1  0.76510000  0.40979000  0.09277000  1
  N  N115  1  0.39481000  0.09508000  0.36216000  1
  N  N116  1  0.40034000  0.05468000  0.30393000  1
  N  N117  1  0.24447000  0.99359000  0.38959000  1
  N  N118  1  0.73986000  0.60093000  0.85350000  1
  N  N119  1  0.65954000  0.64360000  0.90544000  1
  N  N120  1  0.72911000  0.53733000  0.94993000  1
  N  N121  1  0.07770000  0.83520000  0.63419000  1
  N  N122  1  0.96336000  0.78691000  0.60564000  1
  N  N123  1  0.07594000  0.86187000  0.52324000  1
  N  N124  1  0.61379000  0.33079000  0.36726000  1
  N  N125  1  0.57544000  0.27244000  0.40929000  1
  N  N126  1  0.65953000  0.36135000  0.47301000  1
  N  N127  1  0.60160000  0.09137000  0.12873000  1
  N  N128  1  0.68647000  0.14850000  0.09370000  1
  N  N129  1  0.73969000  0.05290000  0.02876000  1
  N  N130  1  0.85677000  0.82439000  0.83916000  1
  N  N131  1  0.99160000  0.86528000  0.80059000  1
  N  N132  1  0.90180000  0.92081000  0.89794000  1
  N  N133  1  0.84598000  0.61012000  0.61608000  1
  N  N134  1  0.82118000  0.57226000  0.67703000  1
  N  N135  1  0.77550000  0.49883000  0.59281000  1
