# generated using pymatgen
data_H32C51(N2O)4
_symmetry_space_group_name_H-M   'P 1'
_cell_length_a   49.35370000
_cell_length_b   49.35370000
_cell_length_c   49.35370000
_cell_angle_alpha   90.00000000
_cell_angle_beta   90.00000000
_cell_angle_gamma   90.00000000
_symmetry_Int_Tables_number   1
_chemical_formula_structural   H32C51(N2O)4
_chemical_formula_sum   'H256 C408 N64 O32'
_cell_volume   120215.13559161
_cell_formula_units_Z   8
loop_
 _symmetry_equiv_pos_site_id
 _symmetry_equiv_pos_as_xyz
  1  'x, y, z'
loop_
 _atom_site_type_symbol
 _atom_site_label
 _atom_site_symmetry_multiplicity
 _atom_site_fract_x
 _atom_site_fract_y
 _atom_site_fract_z
 _atom_site_occupancy
  H  25  1  0.06774300  0.91409300  0.99884300  1
  H  26  1  0.03522700  0.91941400  0.96334600  1
  H  27  1  0.96243000  0.97021700  0.91792700  1
  H  28  1  0.93454500  0.00961000  0.91331500  1
  H  29  1  0.96518300  0.04055500  0.98640800  1
  H  30  1  0.03829100  0.98421100  0.03710900  1
  H  31  1  0.96438900  0.95873200  0.01264000  1
  H  32  1  0.93150200  0.99039500  0.08442800  1
  H  33  1  0.96042800  0.02917300  0.08093600  1
  H  34  1  0.03884900  0.01471500  0.96346700  1
  H  35  1  0.03492300  0.07929500  0.03736800  1
  H  36  1  0.06779000  0.08477800  0.00221700  1
  H  39  1  0.01029900  0.95750600  0.93705800  1
  H  40  1  0.98538900  0.93980100  0.95597600  1
  H  42  1  0.98501600  0.05919300  0.04389700  1
  H  43  1  0.00932300  0.04107600  0.06320200  1
  H  45  1  0.91435000  0.05081900  0.95132000  1
  H  47  1  0.09336400  0.94340600  0.03388700  1
  H  49  1  0.91086100  0.95127800  0.04996800  1
  H  51  1  0.09366700  0.05618900  0.96704200  1
  H  76  1  0.43316700  0.08533100  0.49761000  1
  H  77  1  0.46600700  0.07956300  0.46249800  1
  H  78  1  0.54031000  0.02902200  0.41916000  1
  H  79  1  0.56911800  0.99015000  0.41583300  1
  H  80  1  0.53620700  0.95893500  0.48780900  1
  H  81  1  0.46202600  0.01549500  0.53684100  1
  H  82  1  0.53593300  0.04078700  0.51355000  1
  H  83  1  0.56719900  0.00966400  0.58630000  1
  H  84  1  0.53870300  0.97063600  0.58221700  1
  H  85  1  0.46239300  0.98457200  0.46330600  1
  H  86  1  0.46523700  0.92016600  0.53741200  1
  H  87  1  0.43272500  0.91474200  0.50192600  1
  H  90  1  0.49147300  0.04116200  0.43689700  1
  H  91  1  0.51587800  0.05930400  0.45605700  1
  H  93  1  0.51512800  0.94032800  0.54461700  1
  H  94  1  0.49041100  0.95834500  0.56349300  1
  H  96  1  0.58972400  0.95125100  0.45038100  1
  H  98  1  0.40719500  0.05714000  0.53294900  1
  H  100  1  0.58812600  0.04957300  0.55028500  1
  H  102  1  0.40724400  0.94380700  0.46666400  1
  H  127  1  0.33600500  0.82082200  0.25551700  1
  H  128  1  0.33288900  0.78856300  0.21950700  1
  H  129  1  0.28442000  0.71737200  0.16963700  1
  H  130  1  0.24495200  0.69069000  0.16145400  1
  H  131  1  0.21016200  0.71889000  0.23383200  1
  H  132  1  0.26300500  0.79195000  0.28846100  1
  H  133  1  0.29035900  0.71878700  0.26680300  1
  H  134  1  0.25558200  0.69039000  0.33910500  1
  H  135  1  0.21612800  0.71713100  0.33102700  1
  H  136  1  0.23756500  0.79206400  0.21243400  1
  H  137  1  0.16772900  0.78856700  0.28143200  1
  H  138  1  0.16463700  0.82094900  0.24553000  1
  H  141  1  0.29656500  0.76414700  0.19049800  1
  H  142  1  0.31265700  0.73895100  0.21045800  1
  H  144  1  0.18789200  0.73888600  0.29028800  1
  H  145  1  0.20402500  0.76398700  0.31033300  1
  H  147  1  0.19562900  0.67490800  0.20393400  1
  H  149  1  0.30352700  0.84646900  0.28899100  1
  H  151  1  0.30478100  0.67462800  0.29660600  1
  H  153  1  0.19704700  0.84666200  0.21198000  1
  H  178  1  0.16447500  0.17918400  0.75685300  1
  H  179  1  0.16713400  0.21122600  0.72059200  1
  H  180  1  0.21493400  0.28228100  0.66977100  1
  H  181  1  0.25417500  0.30915400  0.66112500  1
  H  182  1  0.28988300  0.28124500  0.73315800  1
  H  183  1  0.23801400  0.20808800  0.78852800  1
  H  184  1  0.21023900  0.28113600  0.76701600  1
  H  185  1  0.24577300  0.30954700  0.83894000  1
  H  186  1  0.28515000  0.28281800  0.83043400  1
  H  187  1  0.26250100  0.20797200  0.71199900  1
  H  188  1  0.33333333  0.21175900  0.77996300  1
  H  189  1  0.33616100  0.17957300  0.74384700  1
  H  192  1  0.20316400  0.23548800  0.69092900  1
  H  193  1  0.18723900  0.26072200  0.71096800  1
  H  195  1  0.31297300  0.26119600  0.78935700  1
  H  196  1  0.29714500  0.23598200  0.80949500  1
  H  198  1  0.30413700  0.32492400  0.70339800  1
  H  200  1  0.19775300  0.15368100  0.79004400  1
  H  202  1  0.19618200  0.32533900  0.79683800  1
  H  204  1  0.30299800  0.15375300  0.71072700  1
  H  229  1  0.66363200  0.18528400  0.73879700  1
  H  230  1  0.66496900  0.21702700  0.77538400  1
  H  231  1  0.71051400  0.28853300  0.82793100  1
  H  232  1  0.74941500  0.31541700  0.83813700  1
  H  233  1  0.78858700  0.28626800  0.76844900  1
  H  234  1  0.73921300  0.21304600  0.71117600  1
  H  235  1  0.71127000  0.28601300  0.73041500  1
  H  236  1  0.75109400  0.31267500  0.66009000  1
  H  237  1  0.78958200  0.28560800  0.67122000  1
  H  238  1  0.75965700  0.21422100  0.79021000  1
  H  239  1  0.83445000  0.21573400  0.72653300  1
  H  240  1  0.83538400  0.18530600  0.76425000  1
  H  243  1  0.69993700  0.24117500  0.80689100  1
  H  244  1  0.68483400  0.26617800  0.78594900  1
  H  246  1  0.81484200  0.26448700  0.71402700  1
  H  247  1  0.79972900  0.23884500  0.69388100  1
  H  249  1  0.80163200  0.33051800  0.79895500  1
  H  251  1  0.69835100  0.15953300  0.70666800  1
  H  253  1  0.69803600  0.32849800  0.69961300  1
  H  255  1  0.79868300  0.16074700  0.79651300  1
  H  280  1  0.83610900  0.81721300  0.23994100  1
  H  281  1  0.83403000  0.78616400  0.27705500  1
  H  282  1  0.78794700  0.71510500  0.32954600  1
  H  283  1  0.74914300  0.68795200  0.33925900  1
  H  284  1  0.71116800  0.71578000  0.26835900  1
  H  285  1  0.76152900  0.78829500  0.21080700  1
  H  286  1  0.78966900  0.71595200  0.23236900  1
  H  287  1  0.75214400  0.68735000  0.16154400  1
  H  288  1  0.71306700  0.71422000  0.17098300  1
  H  289  1  0.73855800  0.78848800  0.28926500  1
  H  290  1  0.66625400  0.78526200  0.22284800  1
  H  291  1  0.66384300  0.81660100  0.25969300  1
  H  294  1  0.79853300  0.76226700  0.30806000  1
  H  295  1  0.81431700  0.73703900  0.28789900  1
  H  297  1  0.68638000  0.73621000  0.21242200  1
  H  298  1  0.70202400  0.76141800  0.19213000  1
  H  300  1  0.69766000  0.67205500  0.29904700  1
  H  302  1  0.80295100  0.84202800  0.20660600  1
  H  304  1  0.80317100  0.67163500  0.20166100  1
  H  306  1  0.69645600  0.84195900  0.29300900  1
  H  331  1  0.56103800  0.41577000  0.52879300  1
  H  332  1  0.53258400  0.41250000  0.48975200  1
  H  333  1  0.46586400  0.45217700  0.42572100  1
  H  334  1  0.43860700  0.48916900  0.41035400  1
  H  335  1  0.46303100  0.53557500  0.47731800  1
  H  336  1  0.53529900  0.49593800  0.54119900  1
  H  337  1  0.46341400  0.46450200  0.52308900  1
  H  338  1  0.43774800  0.51035100  0.58997800  1
  H  339  1  0.46456100  0.54778400  0.57493300  1
  H  340  1  0.53541200  0.50560500  0.45967400  1
  H  341  1  0.53088400  0.58879700  0.51142800  1
  H  342  1  0.55950600  0.58622700  0.47244700  1
  H  345  1  0.51194700  0.44407600  0.45102000  1
  H  346  1  0.48564900  0.43140000  0.47195000  1
  H  348  1  0.48429800  0.56900900  0.52895500  1
  H  349  1  0.51069700  0.55667100  0.54996300  1
  H  351  1  0.42206900  0.54600700  0.44626800  1
  H  353  1  0.57135300  0.47645200  0.56664800  1
  H  355  1  0.42219100  0.45352200  0.55375600  1
  H  357  1  0.57136700  0.52612800  0.43448800  1
  H  382  1  0.93952000  0.58527700  0.02796400  1
  H  383  1  0.96822100  0.58809300  0.98906000  1
  H  384  1  0.03494300  0.54761400  0.92563800  1
  H  385  1  0.06201700  0.51037900  0.91058600  1
  H  386  1  0.03692400  0.46444100  0.97763000  1
  H  387  1  0.96461000  0.50501200  0.04105000  1
  H  388  1  0.03678100  0.53580200  0.02316700  1
  H  389  1  0.06200700  0.48995500  0.09022200  1
  H  390  1  0.03506100  0.45262200  0.07516800  1
  H  391  1  0.96474600  0.49492900  0.95963800  1
  H  392  1  0.96852100  0.41191400  0.01173900  1
  H  393  1  0.93993300  0.41457900  0.97275100  1
  H  396  1  0.98880500  0.55614900  0.95065800  1
  H  397  1  0.01509600  0.56875300  0.97164300  1
  H  399  1  0.01528900  0.43141200  0.02919700  1
  H  400  1  0.98893700  0.44396000  0.05014100  1
  H  402  1  0.07804000  0.45363100  0.94681400  1
  H  404  1  0.92812900  0.52508900  0.06591500  1
  H  406  1  0.07787600  0.54672100  0.05404900  1
  H  408  1  0.92866500  0.47460000  0.93442000  1
  H  421  1  0.94017400  0.91301500  0.12136900  1
  H  422  1  0.86169400  0.87699200  0.07548400  1
  H  423  1  0.89339200  0.90388700  0.05026800  1
  H  424  1  0.81676500  0.81830700  0.12229600  1
  H  425  1  0.84778600  0.85269100  0.19426500  1
  H  426  1  0.87763600  0.87975300  0.16788100  1
  H  443  1  0.56138600  0.08481100  0.62461500  1
  H  444  1  0.63682100  0.12402400  0.57631100  1
  H  445  1  0.60476900  0.09689700  0.55180800  1
  H  446  1  0.68219600  0.18275700  0.62247600  1
  H  447  1  0.65404000  0.14718900  0.69505200  1
  H  448  1  0.62425900  0.11947400  0.66932900  1
  H  465  1  0.32798500  0.67993200  0.38500800  1
  H  466  1  0.37727000  0.62341400  0.32251500  1
  H  467  1  0.34662600  0.65623600  0.30483000  1
  H  468  1  0.42403500  0.56072200  0.35600400  1
  H  469  1  0.41048200  0.58923200  0.43562700  1
  H  470  1  0.38278600  0.62425700  0.41758600  1
  H  487  1  0.17362400  0.32057200  0.88548300  1
  H  488  1  0.12365000  0.37647400  0.82299000  1
  H  489  1  0.15442200  0.34378000  0.80529700  1
  H  490  1  0.07649900  0.43890100  0.85642200  1
  H  491  1  0.09046100  0.41072300  0.93609100  1
  H  492  1  0.11844300  0.37591300  0.91807900  1
  H  509  1  0.55984600  0.91237500  0.37937600  1
  H  510  1  0.63916400  0.87734800  0.42457800  1
  H  511  1  0.60757300  0.90419900  0.44996200  1
  H  512  1  0.68433900  0.81899600  0.37767200  1
  H  513  1  0.65161900  0.85199000  0.30580700  1
  H  514  1  0.62181700  0.87895100  0.33234000  1
  H  531  1  0.93684900  0.08210300  0.87300600  1
  H  532  1  0.86606000  0.12562500  0.92453600  1
  H  533  1  0.89856800  0.09803300  0.94791600  1
  H  534  1  0.82107300  0.18550900  0.87907900  1
  H  535  1  0.84273300  0.14601800  0.80629800  1
  H  536  1  0.87251000  0.11756400  0.83118600  1
  H  553  1  0.17260800  0.68022400  0.11547600  1
  H  554  1  0.12306000  0.62386000  0.17790000  1
  H  555  1  0.15379000  0.65657700  0.19562800  1
  H  556  1  0.07602100  0.56142700  0.14437900  1
  H  557  1  0.08983400  0.58981000  0.06475400  1
  H  558  1  0.11767300  0.62471300  0.08281700  1
  H  575  1  0.32656900  0.32053500  0.61460800  1
  H  576  1  0.37669700  0.37602200  0.67734900  1
  H  577  1  0.34575700  0.34341700  0.69489600  1
  H  578  1  0.42365800  0.43872500  0.64411400  1
  H  579  1  0.41008100  0.41051400  0.56438700  1
  H  580  1  0.38214900  0.37560900  0.58228400  1
  H  597  1  0.07373400  0.06554700  0.88053700  1
  H  598  1  0.13878400  0.12389800  0.92441700  1
  H  599  1  0.10870100  0.09794300  0.95163800  1
  H  600  1  0.18252400  0.17756200  0.87479300  1
  H  601  1  0.15581100  0.13745000  0.80404700  1
  H  602  1  0.12911400  0.10809200  0.83139800  1
  H  619  1  0.42748500  0.93367600  0.38024100  1
  H  620  1  0.36099600  0.87688400  0.42401100  1
  H  621  1  0.39137500  0.90241600  0.45128100  1
  H  622  1  0.31665300  0.82368900  0.37441800  1
  H  623  1  0.34537800  0.86220600  0.30357000  1
  H  624  1  0.37211400  0.89148100  0.33093600  1
  H  641  1  0.68383100  0.32775400  0.61015100  1
  H  642  1  0.62159600  0.37275400  0.67051100  1
  H  643  1  0.65376600  0.34171500  0.68912700  1
  H  644  1  0.56056200  0.42016900  0.63306300  1
  H  645  1  0.60346600  0.41968100  0.55892200  1
  H  646  1  0.63480100  0.38853600  0.57807400  1
  H  663  1  0.81983500  0.67585200  0.11282200  1
  H  664  1  0.87870600  0.62558000  0.17238600  1
  H  665  1  0.84746400  0.65718400  0.19171000  1
  H  666  1  0.93962100  0.57867400  0.13354800  1
  H  667  1  0.89736300  0.58290400  0.05916500  1
  H  668  1  0.86643300  0.61386500  0.07931200  1
  H  685  1  0.42639700  0.06515000  0.61972000  1
  H  686  1  0.36211200  0.12449800  0.57606000  1
  H  687  1  0.39224200  0.09870200  0.54876500  1
  H  688  1  0.31809800  0.17766400  0.62584300  1
  H  689  1  0.34465700  0.13723100  0.69646600  1
  H  690  1  0.37128300  0.10789500  0.66902600  1
  H  707  1  0.07344900  0.93395200  0.12047000  1
  H  708  1  0.13966800  0.87674200  0.07683000  1
  H  709  1  0.10925600  0.90215900  0.04951000  1
  H  710  1  0.18429600  0.82395800  0.12651900  1
  H  711  1  0.15525800  0.86235000  0.19730800  1
  H  712  1  0.12855000  0.89159000  0.16988900  1
  H  729  1  0.81743400  0.32658700  0.88807300  1
  H  730  1  0.87786300  0.37499700  0.82852100  1
  H  731  1  0.84595400  0.34408100  0.80922800  1
  H  732  1  0.93921800  0.42134200  0.86714600  1
  H  733  1  0.89750900  0.41715800  0.94184000  1
  H  734  1  0.86591400  0.38688100  0.92171400  1
  H  751  1  0.68158000  0.67523800  0.38812700  1
  H  752  1  0.62195700  0.62617400  0.32830600  1
  H  753  1  0.65346200  0.65762400  0.30916400  1
  H  754  1  0.56063400  0.57960000  0.36691300  1
  H  755  1  0.60256600  0.58349000  0.44149900  1
  H  756  1  0.63403700  0.61394800  0.42141300  1
  C  1  1  0.01840500  0.02402600  0.00021800  1
  C  2  1  0.01738100  0.04324100  0.02163400  1
  C  3  1  0.97993600  0.01704900  0.04449200  1
  C  4  1  0.98114600  0.99674700  0.02411900  1
  C  5  1  0.96377300  0.97387600  0.02677900  1
  C  6  1  0.94568500  0.97124000  0.04873800  1
  C  7  1  0.94434600  0.99202400  0.06822700  1
  C  8  1  0.96139700  0.01461700  0.06618400  1
  C  9  1  0.03543600  0.06544900  0.02192500  1
  C  10  1  0.05474700  0.06867100  0.00140200  1
  C  11  1  0.05584900  0.05028300  0.97961800  1
  C  12  1  0.03756900  0.02828500  0.97908900  1
  C  13  1  0.01827200  0.97479400  0.00014900  1
  C  14  1  0.01752000  0.95552700  0.97876700  1
  C  15  1  0.98086600  0.98200900  0.95503000  1
  C  16  1  0.98171900  0.00228800  0.97544800  1
  C  17  1  0.96312700  0.98474400  0.93272200  1
  C  18  1  0.94672100  0.00772800  0.92999900  1
  C  19  1  0.94773600  0.02848600  0.94954500  1
  C  20  1  0.96473400  0.02538800  0.97228500  1
  C  21  1  0.03714400  0.97056700  0.02154300  1
  C  22  1  0.05550300  0.94863600  0.02120700  1
  C  23  1  0.05463600  0.93015700  0.99949700  1
  C  24  1  0.03551700  0.93327100  0.97878500  1
  C  37  1  0.99994100  0.99945600  0.99999500  1
  C  38  1  0.99841500  0.95773900  0.95578400  1
  C  41  1  0.99781700  0.04109500  0.04424200  1
  C  52  1  0.48237700  0.97528800  0.50031700  1
  C  53  1  0.48306600  0.95613500  0.52180500  1
  C  54  1  0.51998500  0.98250300  0.54527800  1
  C  55  1  0.51912600  0.00272100  0.52480100  1
  C  56  1  0.53633200  0.02568400  0.52774300  1
  C  57  1  0.55376600  0.02857200  0.55018300  1
  C  58  1  0.55478300  0.00787500  0.56978500  1
  C  59  1  0.53799000  0.98513100  0.56739000  1
  C  60  1  0.46497800  0.93395400  0.52191200  1
  C  61  1  0.44587500  0.93076700  0.50119400  1
  C  62  1  0.44506900  0.94913000  0.47937800  1
  C  63  1  0.46347500  0.97102100  0.47895900  1
  C  64  1  0.48246400  0.02452200  0.50001500  1
  C  65  1  0.48350200  0.04359100  0.47846800  1
  C  66  1  0.52080400  0.01713800  0.45568400  1
  C  67  1  0.51955100  0.99694400  0.47616300  1
  C  68  1  0.53929500  0.01453100  0.43397300  1
  C  69  1  0.55627400  0.99188100  0.43202400  1
  C  70  1  0.55490200  0.97119700  0.45162100  1
  C  71  1  0.53684700  0.97400100  0.47358900  1
  C  72  1  0.46333100  0.02897000  0.52113800  1
  C  73  1  0.44508300  0.05099700  0.52047100  1
  C  74  1  0.44619100  0.06921400  0.49854600  1
  C  75  1  0.46548700  0.06582600  0.47803900  1
  C  88  1  0.50081700  0.99987000  0.50031900  1
  C  89  1  0.50301200  0.04124800  0.45583600  1
  C  92  1  0.50224000  0.95836700  0.54473100  1
  C  103  1  0.22575600  0.77202700  0.24870900  1
  C  104  1  0.20499600  0.77114100  0.26864000  1
  C  105  1  0.22995800  0.73469200  0.29420900  1
  C  106  1  0.25137900  0.73516800  0.27498200  1
  C  107  1  0.27438900  0.71848500  0.28001500  1
  C  108  1  0.27682800  0.70294600  0.30392600  1
  C  109  1  0.25473700  0.70209300  0.32201000  1
  C  110  1  0.23155300  0.71767600  0.31715900  1
  C  111  1  0.18268900  0.78901000  0.26706200  1
  C  112  1  0.18087300  0.80805500  0.24613100  1
  C  113  1  0.20088200  0.80904900  0.22583900  1
  C  114  1  0.22296200  0.79093100  0.22710700  1
  C  115  1  0.27481400  0.77200100  0.25213500  1
  C  116  1  0.29558900  0.77115000  0.23221600  1
  C  117  1  0.27058700  0.73482600  0.20650500  1
  C  118  1  0.24916100  0.73525600  0.22572400  1
  C  119  1  0.26899100  0.71788100  0.18350100  1
  C  120  1  0.24579300  0.70234200  0.17858500  1
  C  121  1  0.22368900  0.70315700  0.19665600  1
  C  122  1  0.22614100  0.71860200  0.22063000  1
  C  123  1  0.27762000  0.79083800  0.27379700  1
  C  124  1  0.29972800  0.80891600  0.27514600  1
  C  125  1  0.31975900  0.80794100  0.25487200  1
  C  126  1  0.31792900  0.78897000  0.23387900  1
  C  139  1  0.25027700  0.75354600  0.25038600  1
  C  140  1  0.29489400  0.75214400  0.20908000  1
  C  143  1  0.20567400  0.75205100  0.29170600  1
  C  154  1  0.27470300  0.22798700  0.74815600  1
  C  155  1  0.29574100  0.22895500  0.76779000  1
  C  156  1  0.27094600  0.26526700  0.79375800  1
  C  157  1  0.24931700  0.26478700  0.77477000  1
  C  158  1  0.22636000  0.28147600  0.78004200  1
  C  159  1  0.22414500  0.29699300  0.80399400  1
  C  160  1  0.24642900  0.29783200  0.82184500  1
  C  161  1  0.26957400  0.28226600  0.81673700  1
  C  162  1  0.31815800  0.21126100  0.76580600  1
  C  163  1  0.31984200  0.19234300  0.74474400  1
  C  164  1  0.29953200  0.19125100  0.72475400  1
  C  165  1  0.27729800  0.20914300  0.72647400  1
  C  166  1  0.22568900  0.22787900  0.75229000  1
  C  167  1  0.20463500  0.22865500  0.73266400  1
  C  168  1  0.22924300  0.26495700  0.70651600  1
  C  169  1  0.25088900  0.26466100  0.72548900  1
  C  170  1  0.23052800  0.28184900  0.68345400  1
  C  171  1  0.25359800  0.29749300  0.67825900  1
  C  172  1  0.27589600  0.29684300  0.69609900  1
  C  173  1  0.27377300  0.28140900  0.72011400  1
  C  174  1  0.22319900  0.20912700  0.77406100  1
  C  175  1  0.20106200  0.19112900  0.77586600  1
  C  176  1  0.18073200  0.19202700  0.75588400  1
  C  177  1  0.18230700  0.21086100  0.73473900  1
  C  190  1  0.25015100  0.24639100  0.75017600  1
  C  191  1  0.20502000  0.24757000  0.70944000  1
  C  194  1  0.29525000  0.24797300  0.79092900  1
  C  205  1  0.77394000  0.23278100  0.75402200  1
  C  206  1  0.79612400  0.23313900  0.73567700  1
  C  207  1  0.77317600  0.26896000  0.70738500  1
  C  208  1  0.75053100  0.26915900  0.72514500  1
  C  209  1  0.72809100  0.28594800  0.71829400  1
  C  210  1  0.72739000  0.30103500  0.69399800  1
  C  211  1  0.75065500  0.30129000  0.67741200  1
  C  212  1  0.77327700  0.28551800  0.68405000  1
  C  213  1  0.81843700  0.21566800  0.73972300  1
  C  214  1  0.81902600  0.19780700  0.76175400  1
  C  215  1  0.79756500  0.19744200  0.78054500  1
  C  216  1  0.77525100  0.21482900  0.77655900  1
  C  217  1  0.72530100  0.23289000  0.74681900  1
  C  218  1  0.70325800  0.23398800  0.76530600  1
  C  219  1  0.72656300  0.27065200  0.79218900  1
  C  220  1  0.74912500  0.27006300  0.77433300  1
  C  221  1  0.72672700  0.28793800  0.81499600  1
  C  222  1  0.74954800  0.30365100  0.82106700  1
  C  223  1  0.77270200  0.30263800  0.80436700  1
  C  224  1  0.77175700  0.28685200  0.78053900  1
  C  225  1  0.72372900  0.21418800  0.72491600  1
  C  226  1  0.70133900  0.19671400  0.72174500  1
  C  227  1  0.68006400  0.19779300  0.74071800  1
  C  228  1  0.68087500  0.21644000  0.76207600  1
  C  241  1  0.74971600  0.25125800  0.75007100  1
  C  242  1  0.70257100  0.25310300  0.78837800  1
  C  245  1  0.79705000  0.25142600  0.71195000  1
  C  256  1  0.72573900  0.76906700  0.25298400  1
  C  257  1  0.70423500  0.76818700  0.23385900  1
  C  258  1  0.72825900  0.73181100  0.20724100  1
  C  259  1  0.75036900  0.73225100  0.22566100  1
  C  260  1  0.77317200  0.71554500  0.21982300  1
  C  261  1  0.77467100  0.69990500  0.19591700  1
  C  262  1  0.75190500  0.69901500  0.17868600  1
  C  263  1  0.72895600  0.71469400  0.18432000  1
  C  264  1  0.68176600  0.78570000  0.23662000  1
  C  265  1  0.68033400  0.80412000  0.25813500  1
  C  266  1  0.70101700  0.80498500  0.27776400  1
  C  267  1  0.72347900  0.78749500  0.27507300  1
  C  268  1  0.77458600  0.76928100  0.24721900  1
  C  269  1  0.79614500  0.76872200  0.26629200  1
  C  270  1  0.77248900  0.73235000  0.29323600  1
  C  271  1  0.75033200  0.73245900  0.27486700  1
  C  272  1  0.77199800  0.71538700  0.31627400  1
  C  273  1  0.74920400  0.69955000  0.32207300  1
  C  274  1  0.72637700  0.70012500  0.30490500  1
  C  275  1  0.72769600  0.71558900  0.28087000  1
  C  276  1  0.77663600  0.78755400  0.22498400  1
  C  277  1  0.79895900  0.80518500  0.22208900  1
  C  278  1  0.81970300  0.80464200  0.24166800  1
  C  279  1  0.81847300  0.78638200  0.26333000  1
  C  292  1  0.75025300  0.75073600  0.25018600  1
  C  293  1  0.79642800  0.75001200  0.28969200  1
  C  296  1  0.70417200  0.74931100  0.21059200  1
  C  307  1  0.51683400  0.52417900  0.49362400  1
  C  308  1  0.51561500  0.54865400  0.50866100  1
  C  309  1  0.48068100  0.52826000  0.54012100  1
  C  310  1  0.48034100  0.50400500  0.52466400  1
  C  311  1  0.46355800  0.48234900  0.53364600  1
  C  312  1  0.44873600  0.48379300  0.55806300  1
  C  313  1  0.44896300  0.50834900  0.57266000  1
  C  314  1  0.46454700  0.53035300  0.56368800  1
  C  315  1  0.53163400  0.57103300  0.50074200  1
  C  316  1  0.54839400  0.56958200  0.47782600  1
  C  317  1  0.54995600  0.54557800  0.46239500  1
  C  318  1  0.53455900  0.52298400  0.47095100  1
  C  319  1  0.51723100  0.47689000  0.50726500  1
  C  320  1  0.51653700  0.45235100  0.49230900  1
  C  321  1  0.48143100  0.47204500  0.46058900  1
  C  322  1  0.48059200  0.49633900  0.47596800  1
  C  323  1  0.46549500  0.46963800  0.43691500  1
  C  324  1  0.44964400  0.49137700  0.42775900  1
  C  325  1  0.44893300  0.51596700  0.44228700  1
  C  326  1  0.46354200  0.51770400  0.46681000  1
  C  327  1  0.53482500  0.47849100  0.53000700  1
  C  328  1  0.55066200  0.45625500  0.53870500  1
  C  329  1  0.54961800  0.43217200  0.52333800  1
  C  330  1  0.53294700  0.43031000  0.50038200  1
  C  343  1  0.49871800  0.50035500  0.50037800  1
  C  344  1  0.49886400  0.44881500  0.46828100  1
  C  347  1  0.49777600  0.55179600  0.53261800  1
  C  358  1  0.98312700  0.47634100  0.99368200  1
  C  359  1  0.98412800  0.45191700  0.00881700  1
  C  360  1  0.01913100  0.47216700  0.04027800  1
  C  361  1  0.01964400  0.49638600  0.02476600  1
  C  362  1  0.03649900  0.51797700  0.03376100  1
  C  363  1  0.05123700  0.51650600  0.05822700  1
  C  364  1  0.05086300  0.49197300  0.07286100  1
  C  365  1  0.03519300  0.47003100  0.06388900  1
  C  366  1  0.96792700  0.42964300  0.00098200  1
  C  367  1  0.95119300  0.43114500  0.97805600  1
  C  368  1  0.94987400  0.45508800  0.96249900  1
  C  369  1  0.96546500  0.47757900  0.97096600  1
  C  370  1  0.98302400  0.52370300  0.00707900  1
  C  371  1  0.98396600  0.54814500  0.99197000  1
  C  372  1  0.01907200  0.52801900  0.96052500  1
  C  373  1  0.01965900  0.50379600  0.97603000  1
  C  374  1  0.03514700  0.53021100  0.93692800  1
  C  375  1  0.05087300  0.50831400  0.92794200  1
  C  376  1  0.05132900  0.48377500  0.94256700  1
  C  377  1  0.03660400  0.48226600  0.96704200  1
  C  378  1  0.96530300  0.52238000  0.02974600  1
  C  379  1  0.94957600  0.54479200  0.03818600  1
  C  380  1  0.95087300  0.56876600  0.02268100  1
  C  381  1  0.96768000  0.57035800  0.99980900  1
  C  394  1  0.00139500  0.50006000  0.00038800  1
  C  395  1  0.00177400  0.55141300  0.96800600  1
  C  398  1  0.00191200  0.44871600  0.03280300  1
  C  409  1  0.82831800  0.83306800  0.16113500  1
  C  410  1  0.84659500  0.85128500  0.17362200  1
  C  411  1  0.86461400  0.86691900  0.15810800  1
  C  412  1  0.86456300  0.86466800  0.12954400  1
  C  414  1  0.82921200  0.83128500  0.13256900  1
  C  415  1  0.88277600  0.87974700  0.11304300  1
  C  416  1  0.87849300  0.88440900  0.08509100  1
  C  417  1  0.89700600  0.90041800  0.07038400  1
  C  418  1  0.92029900  0.91132500  0.08303200  1
  C  419  1  0.92407800  0.90540700  0.11078400  1
  C  427  1  0.93879200  0.92858800  0.06921000  1
  C  428  1  0.81160600  0.81556000  0.17683500  1
  C  431  1  0.67211100  0.16749000  0.66153700  1
  C  432  1  0.65469200  0.14869900  0.67439500  1
  C  433  1  0.63669400  0.13266700  0.65927800  1
  C  434  1  0.63585700  0.13511900  0.63074100  1
  C  436  1  0.67041300  0.16937200  0.63300800  1
  C  437  1  0.61746500  0.11981100  0.61465900  1
  C  438  1  0.62066600  0.11591100  0.58644400  1
  C  439  1  0.60196300  0.09975000  0.57214900  1
  C  440  1  0.57952500  0.08793400  0.58550600  1
  C  441  1  0.57681200  0.09307700  0.61353600  1
  C  449  1  0.56081700  0.07059400  0.57209700  1
  C  450  1  0.68863900  0.18550000  0.67687300  1
  C  453  1  0.42017700  0.57053600  0.39795800  1
  C  454  1  0.40768800  0.58983000  0.41512800  1
  C  455  1  0.39153300  0.61078900  0.40448400  1
  C  456  1  0.38749100  0.61287000  0.37616800  1
  C  458  1  0.41593200  0.57388400  0.36978600  1
  C  459  1  0.37041800  0.63282600  0.36411400  1
  C  460  1  0.36690000  0.63550000  0.33577400  1
  C  461  1  0.34857800  0.65475900  0.32538400  1
  C  462  1  0.33351300  0.67180700  0.34285000  1
  C  463  1  0.33828200  0.66872000  0.37097100  1
  C  471  1  0.31365800  0.69069200  0.33351100  1
  C  472  1  0.43627700  0.54855800  0.40780300  1
  C  475  1  0.08047800  0.42922200  0.89840000  1
  C  476  1  0.09318800  0.41008500  0.91558600  1
  C  477  1  0.10953600  0.38925900  0.90496300  1
  C  478  1  0.11354600  0.38714000  0.87664500  1
  C  480  1  0.08471500  0.42583800  0.87022600  1
  C  481  1  0.13077200  0.36730400  0.86459700  1
  C  482  1  0.13418400  0.36453400  0.83625300  1
  C  483  1  0.15258500  0.34534800  0.82585700  1
  C  484  1  0.16785200  0.32847200  0.84331600  1
  C  485  1  0.16320800  0.33167300  0.87144800  1
  C  493  1  0.18769500  0.30957500  0.83394900  1
  C  494  1  0.06420900  0.45110900  0.90820700  1
  C  497  1  0.67192700  0.83308400  0.33884800  1
  C  498  1  0.65316900  0.85086400  0.32644300  1
  C  499  1  0.63518200  0.86643500  0.34205900  1
  C  500  1  0.63573700  0.86455900  0.37064700  1
  C  502  1  0.67152600  0.83165200  0.36744500  1
  C  503  1  0.61759900  0.87961500  0.38726200  1
  C  504  1  0.62218800  0.88455100  0.41512000  1
  C  505  1  0.60373200  0.90053600  0.42992300  1
  C  506  1  0.58019300  0.91116100  0.41748400  1
  C  507  1  0.57612500  0.90497500  0.38982900  1
  C  515  1  0.56175100  0.92845700  0.43134300  1
  C  516  1  0.68868400  0.81565300  0.32309200  1
  C  519  1  0.82789300  0.16840900  0.84006800  1
  C  520  1  0.84341600  0.14823500  0.82689000  1
  C  521  1  0.86142400  0.13173800  0.84148100  1
  C  522  1  0.86417400  0.13511500  0.86980100  1
  C  524  1  0.83141900  0.17111800  0.86836400  1
  C  525  1  0.88283100  0.11949300  0.88524600  1
  C  526  1  0.88123000  0.11655700  0.91371000  1
  C  527  1  0.90017900  0.10011500  0.92735700  1
  C  528  1  0.92131000  0.08706700  0.91304400  1
  C  529  1  0.92244300  0.09124900  0.88474600  1
  C  537  1  0.94032000  0.06955700  0.92577400  1
  C  538  1  0.81160600  0.18690100  0.82506800  1
  C  541  1  0.07997000  0.57119700  0.10242000  1
  C  542  1  0.09258800  0.59041300  0.08525700  1
  C  543  1  0.10883400  0.61129900  0.09591200  1
  C  544  1  0.11284600  0.61337800  0.12423400  1
  C  546  1  0.08419900  0.57454000  0.13059800  1
  C  547  1  0.12999200  0.63325700  0.13630800  1
  C  548  1  0.13348900  0.63591100  0.16465300  1
  C  549  1  0.15186400  0.65510800  0.17507000  1
  C  550  1  0.16700500  0.67211100  0.15762800  1
  C  551  1  0.16226200  0.66904000  0.12949900  1
  C  559  1  0.18688700  0.69095300  0.16700000  1
  C  560  1  0.06381000  0.54926100  0.09257600  1
  C  563  1  0.41984700  0.42904800  0.60211900  1
  C  564  1  0.40727400  0.40986800  0.58488000  1
  C  565  1  0.39096700  0.38898000  0.59543600  1
  C  566  1  0.38685600  0.38684800  0.62374000  1
  C  568  1  0.41554300  0.42563200  0.63027900  1
  C  569  1  0.36959100  0.36700400  0.63570700  1
  C  570  1  0.36613700  0.36416100  0.66403700  1
  C  571  1  0.34763500  0.34502600  0.67434600  1
  C  572  1  0.33230900  0.32827900  0.65681400  1
  C  573  1  0.33702000  0.33153300  0.62869800  1
  C  581  1  0.31231100  0.30949200  0.66607500  1
  C  582  1  0.43602200  0.45102200  0.59236700  1
  C  585  1  0.17286600  0.16030800  0.83643100  1
  C  586  1  0.15683400  0.13965700  0.82462300  1
  C  587  1  0.14069000  0.12255200  0.84069800  1
  C  588  1  0.14029600  0.12586800  0.86915000  1
  C  590  1  0.17169800  0.16293300  0.86490700  1
  C  591  1  0.12367000  0.10982000  0.88646600  1
  C  592  1  0.12526100  0.11130400  0.91503100  1
  C  593  1  0.10772400  0.09561200  0.93107300  1
  C  594  1  0.08834900  0.07814600  0.91913600  1
  C  595  1  0.08736800  0.07750900  0.89053900  1
  C  603  1  0.06931300  0.06340800  0.93507000  1
  C  604  1  0.18767800  0.17913400  0.82033700  1
  C  607  1  0.32730100  0.84017800  0.33598300  1
  C  608  1  0.34391500  0.86035700  0.32415400  1
  C  609  1  0.36008200  0.87740900  0.34025200  1
  C  610  1  0.35994200  0.87449900  0.36874800  1
  C  612  1  0.32790800  0.83797700  0.36451200  1
  C  613  1  0.37665200  0.89042700  0.38608800  1
  C  614  1  0.37479800  0.88918700  0.41464600  1
  C  615  1  0.39251500  0.90464500  0.43071500  1
  C  616  1  0.41233800  0.92162700  0.41881100  1
  C  617  1  0.41353300  0.92206800  0.39021800  1
  C  625  1  0.43159100  0.93602300  0.43479200  1
  C  626  1  0.31248500  0.82133200  0.31991300  1
  C  629  1  0.57853800  0.42394600  0.59388400  1
  C  630  1  0.60054200  0.41372400  0.57855200  1
  C  631  1  0.61904100  0.39519400  0.58977500  1
  C  632  1  0.61593100  0.38648400  0.61690600  1
  C  634  1  0.57604800  0.41411700  0.62073300  1
  C  635  1  0.63420500  0.36802500  0.62947800  1
  C  636  1  0.63471800  0.36307300  0.65772100  1
  C  637  1  0.65394300  0.34503200  0.66868300  1
  C  638  1  0.67259400  0.33129400  0.65178300  1
  C  639  1  0.67084300  0.33656600  0.62366300  1
  C  647  1  0.69279700  0.31323300  0.66175100  1
  C  648  1  0.55932600  0.44240200  0.58249900  1
  C  651  1  0.92188800  0.57680600  0.09412700  1
  C  652  1  0.90016700  0.58796800  0.07906500  1
  C  653  1  0.88194200  0.60640800  0.09086800  1
  C  654  1  0.88504200  0.61405100  0.11832300  1
  C  656  1  0.92432700  0.58547600  0.12137600  1
  C  657  1  0.86720900  0.63261900  0.13136600  1
  C  658  1  0.86629300  0.63637500  0.15978100  1
  C  659  1  0.84762600  0.65476500  0.17114000  1
  C  660  1  0.82999400  0.67005500  0.15448200  1
  C  661  1  0.83211600  0.66589300  0.12620100  1
  C  669  1  0.81036800  0.68855200  0.16481200  1
  C  670  1  0.94095800  0.55875600  0.08194600  1
  C  673  1  0.32768100  0.16026300  0.66416100  1
  C  674  1  0.34364000  0.13951200  0.67589800  1
  C  675  1  0.35974400  0.12241200  0.65977000  1
  C  676  1  0.36018400  0.12583800  0.63133000  1
  C  678  1  0.32887100  0.16296900  0.63569300  1
  C  679  1  0.37681200  0.10984500  0.61395600  1
  C  680  1  0.37545900  0.11168300  0.58539900  1
  C  681  1  0.39303000  0.09608500  0.56930300  1
  C  682  1  0.41219800  0.07834100  0.58116800  1
  C  683  1  0.41292100  0.07732500  0.60976400  1
  C  691  1  0.43128900  0.06369500  0.56519900  1
  C  692  1  0.31292300  0.17910900  0.68029500  1
  C  695  1  0.17349100  0.84039300  0.16493300  1
  C  696  1  0.15679700  0.86052500  0.17672800  1
  C  697  1  0.14064800  0.87755900  0.16059600  1
  C  698  1  0.14087500  0.87466600  0.13209800  1
  C  700  1  0.17298000  0.83821400  0.13640200  1
  C  701  1  0.12416600  0.89055500  0.11472300  1
  C  702  1  0.12593600  0.88914500  0.08616800  1
  C  703  1  0.10819500  0.90453400  0.07006400  1
  C  704  1  0.08844800  0.92163300  0.08192800  1
  C  705  1  0.08735000  0.92226100  0.11052000  1
  C  713  1  0.06914800  0.93593700  0.06592500  1
  C  714  1  0.18830200  0.82155900  0.18102400  1
  C  717  1  0.92180500  0.42317000  0.90670200  1
  C  718  1  0.90003500  0.41224400  0.92186600  1
  C  719  1  0.88142500  0.39419500  0.91007300  1
  C  720  1  0.88420700  0.38669000  0.88254700  1
  C  722  1  0.92390600  0.41467800  0.87937800  1
  C  723  1  0.86598300  0.36849500  0.86952300  1
  C  724  1  0.86511200  0.36460700  0.84112600  1
  C  725  1  0.84605000  0.34662200  0.82978100  1
  C  726  1  0.82793800  0.33189600  0.84643500  1
  C  727  1  0.83002900  0.33615100  0.87470200  1
  C  735  1  0.80791300  0.31383900  0.83609500  1
  C  736  1  0.94137000  0.44068400  0.91883400  1
  C  739  1  0.57817900  0.57760800  0.40640500  1
  C  740  1  0.59997700  0.58849500  0.42155300  1
  C  741  1  0.61851100  0.60664300  0.40978500  1
  C  742  1  0.61562100  0.61429000  0.38230500  1
  C  744  1  0.57598500  0.58621300  0.37912000  1
  C  745  1  0.63367900  0.63269800  0.36934800  1
  C  746  1  0.63455000  0.63669400  0.34096300  1
  C  747  1  0.65336900  0.65499600  0.32971000  1
  C  748  1  0.67121000  0.66995100  0.34644800  1
  C  749  1  0.66915900  0.66553000  0.37469300  1
  C  757  1  0.69094100  0.68840600  0.33624200  1
  C  758  1  0.55872600  0.56002300  0.41858200  1
  N  44  1  0.93322000  0.05163000  0.94556000  1
  N  46  1  0.07486900  0.94523000  0.04058400  1
  N  48  1  0.93029900  0.94853400  0.05206200  1
  N  50  1  0.07526300  0.05387700  0.96028600  1
  N  95  1  0.57028300  0.94846300  0.44840800  1
  N  97  1  0.42560700  0.05478500  0.53969600  1
  N  99  1  0.56879200  0.05142300  0.55384500  1
  N  101  1  0.42572700  0.94567900  0.45996700  1
  N  146  1  0.20056200  0.68891300  0.19099400  1
  N  148  1  0.30215300  0.82775100  0.29514900  1
  N  150  1  0.29995100  0.68867800  0.30953700  1
  N  152  1  0.19843600  0.82792300  0.20588900  1
  N  197  1  0.29887900  0.31125500  0.69022800  1
  N  199  1  0.19898200  0.17243200  0.79606200  1
  N  201  1  0.20108100  0.31131600  0.80976900  1
  N  203  1  0.30172400  0.17247700  0.70464000  1
  N  248  1  0.79568500  0.31645400  0.81142200  1
  N  250  1  0.69979100  0.17843900  0.70114500  1
  N  252  1  0.70469300  0.31521600  0.68665300  1
  N  254  1  0.79868500  0.17979200  0.80172700  1
  N  299  1  0.70345000  0.68604100  0.31167700  1
  N  301  1  0.80103200  0.82311100  0.20119500  1
  N  303  1  0.79774100  0.68599500  0.18929800  1
  N  305  1  0.69873100  0.82309700  0.29846800  1
  N  350  1  0.43428500  0.53774300  0.43320700  1
  N  352  1  0.56699500  0.45795100  0.56112100  1
  N  354  1  0.43425300  0.46181700  0.56693600  1
  N  356  1  0.56632200  0.54449400  0.43998100  1
  N  401  1  0.06592900  0.46188600  0.93365200  1
  N  403  1  0.93304400  0.54347300  0.06046700  1
  N  405  1  0.06572200  0.53845000  0.06716300  1
  N  407  1  0.93346800  0.45626500  0.94012200  1
  N  413  1  0.84674300  0.84690500  0.11818200  1
  N  420  1  0.90548800  0.89051000  0.12439800  1
  N  435  1  0.65288700  0.15340900  0.61900900  1
  N  442  1  0.59555800  0.10817000  0.62669600  1
  N  457  1  0.40004700  0.59417200  0.36028100  1
  N  464  1  0.35582300  0.64975200  0.38022900  1
  N  479  1  0.10078300  0.40568200  0.86074200  1
  N  486  1  0.14556700  0.35054900  0.88071000  1
  N  501  1  0.65400500  0.84719800  0.38192700  1
  N  508  1  0.59466200  0.89010700  0.37610900  1
  N  523  1  0.84891100  0.15469500  0.88186700  1
  N  530  1  0.90350000  0.10666300  0.87227700  1
  N  545  1  0.10017200  0.59475300  0.14011100  1
  N  552  1  0.14466600  0.65013500  0.12021600  1
  N  567  1  0.39950200  0.40542400  0.63969600  1
  N  574  1  0.35475100  0.35036300  0.61952000  1
  N  589  1  0.15592400  0.14600900  0.87975100  1
  N  596  1  0.10467300  0.09290600  0.87571700  1
  N  611  1  0.34375300  0.85481700  0.37937600  1
  N  618  1  0.39605700  0.90689600  0.37537400  1
  N  633  1  0.59442100  0.39643200  0.63099200  1
  N  640  1  0.65240100  0.35437700  0.61392900  1
  N  655  1  0.90622900  0.60313200  0.13217700  1
  N  662  1  0.84997200  0.64771600  0.11606700  1
  N  677  1  0.34461400  0.14606300  0.62079800  1
  N  684  1  0.39560500  0.09266200  0.62464000  1
  N  699  1  0.15713800  0.85502600  0.12150500  1
  N  706  1  0.10483500  0.90713300  0.12539900  1
  N  721  1  0.90545500  0.39738000  0.86860100  1
  N  728  1  0.84829900  0.35392100  0.88481700  1
  N  743  1  0.59435400  0.60362000  0.36837300  1
  N  750  1  0.65113200  0.64746500  0.38472100  1
  O  429  1  0.81039500  0.78922900  0.16912500  1
  O  430  1  0.96511300  0.92787100  0.07712000  1
  O  451  1  0.68914600  0.21177300  0.66888600  1
  O  452  1  0.53491000  0.07036500  0.58129800  1
  O  473  1  0.45504000  0.53814800  0.39063900  1
  O  474  1  0.30712200  0.71141300  0.35035500  1
  O  495  1  0.04552000  0.46148900  0.89094200  1
  O  496  1  0.19438600  0.28897300  0.85087600  1
  O  517  1  0.69026800  0.78941400  0.33103700  1
  O  518  1  0.53535200  0.92758300  0.42372100  1
  O  539  1  0.81281400  0.21337000  0.83230200  1
  O  540  1  0.96547500  0.06797900  0.91479400  1
  O  561  1  0.04509700  0.53882500  0.10978200  1
  O  562  1  0.19351400  0.71163800  0.15014600  1
  O  583  1  0.45461200  0.46150500  0.60967600  1
  O  584  1  0.30545200  0.28904600  0.64902700  1
  O  605  1  0.18806300  0.20532400  0.82862400  1
  O  606  1  0.04358200  0.06168500  0.92561600  1
  O  627  1  0.31179200  0.79523700  0.32846400  1
  O  628  1  0.45737600  0.93735800  0.42543100  1
  O  649  1  0.54206400  0.45456800  0.60008200  1
  O  650  1  0.70121600  0.29334200  0.64475200  1
  O  671  1  0.95879100  0.54638400  0.09881400  1
  O  672  1  0.80297900  0.70936900  0.14844600  1
  O  693  1  0.31252200  0.20528900  0.67197400  1
  O  694  1  0.45694600  0.06179600  0.57481400  1
  O  715  1  0.18894000  0.79546200  0.17247900  1
  O  716  1  0.04338600  0.93731100  0.07534400  1
  O  737  1  0.96004300  0.45232900  0.90239400  1
  O  738  1  0.79984400  0.29335600  0.85256000  1
  O  759  1  0.54046800  0.54800900  0.40191900  1
  O  760  1  0.69851500  0.70899600  0.35280800  1
