# generated using pymatgen
data_VH4C11O6
_symmetry_space_group_name_H-M   'P 1'
_cell_length_a   7.25386000
_cell_length_b   15.20155000
_cell_length_c   16.59620000
_cell_angle_alpha   85.26268000
_cell_angle_beta   90.00086000
_cell_angle_gamma   90.00037000
_symmetry_Int_Tables_number   1
_chemical_formula_structural   VH4C11O6
_chemical_formula_sum   'V4 H16 C44 O24'
_cell_volume   1823.80972244
_cell_formula_units_Z   4
loop_
 _symmetry_equiv_pos_site_id
 _symmetry_equiv_pos_as_xyz
  1  'x, y, z'
loop_
 _atom_site_type_symbol
 _atom_site_label
 _atom_site_symmetry_multiplicity
 _atom_site_fract_x
 _atom_site_fract_y
 _atom_site_fract_z
 _atom_site_occupancy
  V  V0  1  0.19699000  0.76036000  0.74946000  1
  V  V1  1  0.80301000  0.23964000  0.25054000  1
  V  V2  1  0.69699000  0.73964000  0.75054000  1
  V  V3  1  0.30301000  0.26036000  0.24946000  1
  H  H4  1  0.88057000  0.49364000  0.20669000  1
  H  H5  1  0.11943000  0.50636000  0.79331000  1
  H  H6  1  0.38002000  0.00645000  0.29337000  1
  H  H7  1  0.61998000  0.99355000  0.70663000  1
  H  H8  1  0.25311000  0.36383000  0.77607000  1
  H  H9  1  0.74689000  0.63617000  0.22393000  1
  H  H10  1  0.75423000  0.13597000  0.72380000  1
  H  H11  1  0.24577000  0.86403000  0.27620000  1
  H  H12  1  0.83381000  0.71879000  0.97456000  1
  H  H13  1  0.16619000  0.28121000  0.02544000  1
  H  H14  1  0.33321000  0.78131000  0.52550000  1
  H  H15  1  0.66679000  0.21869000  0.47450000  1
  H  H16  1  0.66785000  0.77211000  0.16437000  1
  H  H17  1  0.33215000  0.22789000  0.83563000  1
  H  H18  1  0.16628000  0.72817000  0.33580000  1
  H  H19  1  0.83372000  0.27183000  0.66420000  1
  C  C20  1  0.47708000  0.85643000  0.85328000  1
  C  C21  1  0.52292000  0.14357000  0.14672000  1
  C  C22  1  0.97707000  0.64357000  0.64672000  1
  C  C23  1  0.02293000  0.35643000  0.35328000  1
  C  C24  1  0.47712000  0.86631000  0.63620000  1
  C  C25  1  0.52288000  0.13369000  0.36380000  1
  C  C26  1  0.97712000  0.63369000  0.86380000  1
  C  C27  1  0.02288000  0.36631000  0.13620000  1
  C  C28  1  0.00520000  0.46988000  0.46883000  1
  C  C29  1  0.99480000  0.53012000  0.53117000  1
  C  C30  1  0.50520000  0.03012000  0.03117000  1
  C  C31  1  0.49480000  0.96988000  0.96883000  1
  C  C32  1  0.84420000  0.66706000  0.02317000  1
  C  C33  1  0.15580000  0.33294000  0.97684000  1
  C  C34  1  0.34360000  0.83305000  0.47690000  1
  C  C35  1  0.65641000  0.16695000  0.52310000  1
  C  C36  1  0.78041000  0.68641000  0.09905000  1
  C  C37  1  0.21959000  0.31359000  0.90095000  1
  C  C38  1  0.27948000  0.81376000  0.40105000  1
  C  C39  1  0.72052000  0.18624000  0.59895000  1
  C  C40  1  0.79425000  0.62230000  0.16439000  1
  C  C41  1  0.20575000  0.37770000  0.83561000  1
  C  C42  1  0.29335000  0.87786000  0.33571000  1
  C  C43  1  0.70665000  0.12214000  0.66429000  1
  C  C44  1  0.87061000  0.53998000  0.15380000  1
  C  C45  1  0.12939000  0.46001000  0.84620000  1
  C  C46  1  0.37003000  0.96012000  0.34626000  1
  C  C47  1  0.62997000  0.03988000  0.65374000  1
  C  C48  1  0.93401000  0.51871000  0.07719000  1
  C  C49  1  0.06599000  0.48129000  0.92281000  1
  C  C50  1  0.43372000  0.98135000  0.42285000  1
  C  C51  1  0.56628000  0.01865000  0.57715000  1
  C  C52  1  0.92071000  0.58362000  0.01046000  1
  C  C53  1  0.07929000  0.41638000  0.98954000  1
  C  C54  1  0.42041000  0.91644000  0.48957000  1
  C  C55  1  0.57959000  0.08356000  0.51043000  1
  C  C56  1  0.01314000  0.43498000  0.06685000  1
  C  C57  1  0.98686000  0.56502000  0.93315000  1
  C  C58  1  0.51315000  0.06502000  0.43315000  1
  C  C59  1  0.48685000  0.93498000  0.56685000  1
  C  C60  1  0.01376000  0.41853000  0.41601000  1
  C  C61  1  0.98624000  0.58147000  0.58399000  1
  C  C62  1  0.51376000  0.08147000  0.08399000  1
  C  C63  1  0.48624000  0.91853000  0.91601000  1
  O  O64  1  0.63824000  0.83403000  0.66346000  1
  O  O65  1  0.36176000  0.16597000  0.33654000  1
  O  O66  1  0.13824000  0.66597000  0.83654000  1
  O  O67  1  0.86176000  0.33403000  0.16346000  1
  O  O68  1  0.31013000  0.83627000  0.82710000  1
  O  O69  1  0.68987000  0.16373000  0.17290000  1
  O  O70  1  0.81013000  0.66373000  0.67290000  1
  O  O71  1  0.18987000  0.33627000  0.32710000  1
  O  O72  1  0.30863000  0.84450000  0.66349000  1
  O  O73  1  0.69137000  0.15550000  0.33651000  1
  O  O74  1  0.80863000  0.65550000  0.83651000  1
  O  O75  1  0.19137000  0.34450000  0.16349000  1
  O  O76  1  0.13668000  0.67426000  0.67177000  1
  O  O77  1  0.86332000  0.32574000  0.32823000  1
  O  O78  1  0.63668000  0.82574000  0.82823000  1
  O  O79  1  0.36332000  0.17426000  0.17177000  1
  O  O80  1  0.47120000  0.69414000  0.75291000  1
  O  O81  1  0.52880000  0.30586000  0.24709000  1
  O  O82  1  0.97120000  0.80586000  0.74709000  1
  O  O83  1  0.02880000  0.19414000  0.25291000  1
  O  O84  1  0.70646000  0.76878000  0.10737000  1
  O  O85  1  0.29354000  0.23121000  0.89263000  1
  O  O86  1  0.20519000  0.73144000  0.39277000  1
  O  O87  1  0.79481000  0.26856000  0.60723000  1
