# generated using pymatgen
data_H7(C5N2)2
_symmetry_space_group_name_H-M   'P 1'
_cell_length_a   37.54580000
_cell_length_b   37.54580000
_cell_length_c   37.54580000
_cell_angle_alpha   90.00000000
_cell_angle_beta   90.00000000
_cell_angle_gamma   90.00000000
_symmetry_Int_Tables_number   1
_chemical_formula_structural   H7(C5N2)2
_chemical_formula_sum   'H168 C240 N96'
_cell_volume   52927.82983057
_cell_formula_units_Z   24
loop_
 _symmetry_equiv_pos_site_id
 _symmetry_equiv_pos_as_xyz
  1  'x, y, z'
loop_
 _atom_site_type_symbol
 _atom_site_label
 _atom_site_symmetry_multiplicity
 _atom_site_fract_x
 _atom_site_fract_y
 _atom_site_fract_z
 _atom_site_occupancy
  H  7  1  0.08458400  0.04554800  0.25946700  1
  H  8  1  0.11589900  0.07370000  0.15673500  1
  H  15  1  0.13852000  0.91058900  0.32829000  1
  H  16  1  0.08438500  0.96603800  0.24904900  1
  H  19  1  0.18296200  0.97135500  0.23003400  1
  H  20  1  0.19471700  0.98387300  0.18979100  1
  H  21  1  0.20285500  0.01692800  0.31320900  1
  H  22  1  0.18002100  0.03999700  0.28359200  1
  H  29  1  0.42008100  0.95925500  0.75940300  1
  H  30  1  0.38841900  0.93068700  0.65687500  1
  H  37  1  0.36622700  0.09418000  0.82819600  1
  H  38  1  0.42024100  0.03871800  0.74885000  1
  H  41  1  0.32177000  0.03348000  0.72996200  1
  H  42  1  0.30989900  0.02089600  0.68977300  1
  H  43  1  0.30192400  0.98777700  0.81324900  1
  H  44  1  0.32474700  0.96471200  0.78362400  1
  H  51  1  0.92009700  0.54549900  0.24532600  1
  H  52  1  0.88858400  0.57382400  0.34794300  1
  H  59  1  0.86614400  0.41055700  0.17652000  1
  H  60  1  0.92030800  0.46609700  0.25571900  1
  H  63  1  0.82163600  0.47137100  0.27464300  1
  H  64  1  0.80983200  0.48386800  0.31487400  1
  H  65  1  0.80189500  0.51696300  0.19142900  1
  H  66  1  0.82470700  0.54003400  0.22105700  1
  H  73  1  0.58451800  0.45930800  0.74531900  1
  H  74  1  0.61569600  0.43127300  0.84811900  1
  H  81  1  0.63846300  0.59411700  0.67639000  1
  H  82  1  0.58435300  0.53875500  0.75570900  1
  H  85  1  0.68310400  0.53329000  0.77466700  1
  H  86  1  0.69476700  0.52085400  0.81495900  1
  H  87  1  0.70275500  0.48774300  0.69150500  1
  H  88  1  0.67992900  0.46472000  0.72116200  1
  H  95  1  0.25948200  0.08448400  0.04554900  1
  H  96  1  0.15673600  0.11577600  0.07365200  1
  H  103  1  0.32831900  0.13851300  0.91063900  1
  H  104  1  0.24907600  0.08439100  0.96609400  1
  H  107  1  0.23014000  0.18302100  0.97151400  1
  H  108  1  0.18988700  0.19475500  0.98401900  1
  H  109  1  0.31331300  0.20280700  0.01701300  1
  H  110  1  0.28369300  0.17997600  0.04008400  1
  H  117  1  0.75942200  0.42028100  0.95934500  1
  H  118  1  0.65687200  0.38869300  0.93077800  1
  H  125  1  0.82821700  0.36626700  0.09417900  1
  H  126  1  0.74890400  0.42031800  0.03870900  1
  H  129  1  0.73003300  0.32175400  0.03331800  1
  H  130  1  0.68984800  0.30990400  0.02070600  1
  H  131  1  0.81330200  0.30201200  0.98774000  1
  H  132  1  0.78368800  0.32485100  0.96467500  1
  H  139  1  0.24533900  0.92001500  0.54547500  1
  H  140  1  0.34802000  0.88862100  0.57370700  1
  H  147  1  0.17656700  0.86609400  0.41049300  1
  H  148  1  0.25577400  0.92026800  0.46601500  1
  H  151  1  0.27473100  0.82162000  0.47129100  1
  H  152  1  0.31498100  0.80985300  0.48377200  1
  H  153  1  0.19149600  0.80186000  0.51690700  1
  H  154  1  0.22112800  0.82467500  0.53997000  1
  H  161  1  0.74531600  0.58460000  0.45935100  1
  H  162  1  0.84804700  0.61587200  0.43114000  1
  H  169  1  0.67643500  0.63851300  0.59419100  1
  H  170  1  0.75574600  0.58439500  0.53881400  1
  H  173  1  0.77475500  0.68309900  0.53340200  1
  H  174  1  0.81502800  0.69479100  0.52092600  1
  H  175  1  0.69156000  0.70281600  0.48782500  1
  H  176  1  0.72121000  0.67998800  0.46479500  1
  H  183  1  0.04560200  0.25943800  0.08456800  1
  H  184  1  0.07378500  0.15677400  0.11608800  1
  H  191  1  0.91066600  0.32836400  0.13847300  1
  H  192  1  0.96610000  0.24907100  0.08439500  1
  H  195  1  0.97136500  0.23016500  0.18295600  1
  H  196  1  0.98385900  0.18993900  0.19478300  1
  H  197  1  0.01700800  0.31331900  0.20281100  1
  H  198  1  0.04007200  0.28368000  0.17999700  1
  H  205  1  0.95934000  0.75937900  0.42029700  1
  H  206  1  0.93104700  0.65668800  0.38892500  1
  H  213  1  0.09417500  0.82819100  0.36625900  1
  H  214  1  0.03873300  0.74887700  0.42033200  1
  H  217  1  0.03328100  0.73000900  0.32172400  1
  H  218  1  0.02073200  0.68977900  0.30995700  1
  H  219  1  0.98772400  0.81324900  0.30203100  1
  H  220  1  0.96467200  0.78362900  0.32487800  1
  H  227  1  0.54553400  0.24533100  0.91991300  1
  H  228  1  0.57380800  0.34795900  0.88838100  1
  H  235  1  0.41050600  0.17653000  0.86611300  1
  H  236  1  0.46606300  0.25574700  0.92024100  1
  H  239  1  0.47121600  0.27468300  0.82161000  1
  H  240  1  0.48368400  0.31492200  0.80979700  1
  H  241  1  0.51687500  0.19145800  0.80180700  1
  H  242  1  0.53995100  0.22109600  0.82460100  1
  H  249  1  0.45937500  0.74527300  0.58447000  1
  H  250  1  0.43088700  0.84786300  0.61593600  1
  H  257  1  0.59416700  0.67642200  0.63849200  1
  H  258  1  0.53878700  0.75573000  0.58437900  1
  H  261  1  0.53330000  0.77468300  0.68306400  1
  H  262  1  0.52074800  0.81490800  0.69482000  1
  H  263  1  0.48774800  0.69144900  0.70272800  1
  H  264  1  0.46471500  0.72109000  0.67989700  1
  H  272  1  0.00344100  0.93710300  0.31145700  1
  H  273  1  0.03768400  0.95967300  0.29542000  1
  H  274  1  0.00680700  0.87539500  0.32582100  1
  H  282  1  0.50118200  0.06767900  0.81132100  1
  H  283  1  0.46694200  0.04512500  0.79526000  1
  H  284  1  0.49783200  0.12939000  0.82570300  1
  H  292  1  0.00121400  0.43714100  0.19335400  1
  H  293  1  0.96692800  0.45970200  0.20930100  1
  H  294  1  0.99790100  0.37545600  0.17897700  1
  H  302  1  0.50346800  0.56757900  0.69319300  1
  H  303  1  0.53776200  0.54501100  0.70911800  1
  H  304  1  0.50679700  0.62935600  0.67885100  1
  H  312  1  0.31142000  0.00342700  0.93710300  1
  H  313  1  0.29541800  0.03767100  0.95969400  1
  H  314  1  0.32576200  0.00681300  0.87539200  1
  H  322  1  0.81139300  0.50123600  0.06766000  1
  H  323  1  0.79532700  0.46699700  0.04510800  1
  H  324  1  0.82577000  0.49789000  0.12937100  1
  H  332  1  0.19341500  0.00116600  0.43703900  1
  H  333  1  0.20936100  0.96688500  0.45960900  1
  H  334  1  0.17903100  0.99783700  0.37535500  1
  H  342  1  0.69325700  0.50350200  0.56759500  1
  H  343  1  0.70916800  0.53781200  0.54504300  1
  H  344  1  0.67889600  0.50679700  0.62936700  1
  H  352  1  0.93714000  0.31146200  0.00341800  1
  H  353  1  0.95971800  0.29543100  0.03765700  1
  H  354  1  0.87542900  0.32582300  0.00680200  1
  H  362  1  0.06772300  0.81137400  0.50123800  1
  H  363  1  0.04515300  0.79530800  0.46700800  1
  H  364  1  0.12943600  0.82574100  0.49786100  1
  H  372  1  0.43713500  0.19335900  0.00116100  1
  H  373  1  0.45968400  0.20931300  0.96686900  1
  H  374  1  0.37544500  0.17898600  0.99786900  1
  H  382  1  0.56765800  0.69326500  0.50348900  1
  H  383  1  0.54507800  0.70917400  0.53778000  1
  H  384  1  0.62943100  0.67892300  0.50682900  1
  H  392  1  0.68165500  0.25371500  0.93817100  1
  H  393  1  0.70472800  0.28725700  0.95488400  1
  H  394  1  0.61978100  0.25760400  0.92583200  1
  H  402  1  0.82329000  0.75086900  0.43848300  1
  H  403  1  0.80016100  0.71728600  0.45503300  1
  H  404  1  0.88518800  0.74695900  0.42629800  1
  H  412  1  0.18161100  0.25084700  0.06647900  1
  H  413  1  0.20473200  0.21725100  0.04995100  1
  H  414  1  0.11973900  0.24698000  0.07865700  1
  H  422  1  0.32327700  0.75363100  0.56614800  1
  H  423  1  0.30016100  0.78722500  0.54960900  1
  H  424  1  0.38518500  0.75756500  0.57852800  1
  H  432  1  0.75364200  0.56637700  0.32327700  1
  H  433  1  0.78716100  0.54969600  0.30014500  1
  H  434  1  0.75758900  0.57859700  0.38516100  1
  H  442  1  0.25087700  0.06633700  0.18151600  1
  H  443  1  0.21728000  0.04982300  0.20464900  1
  H  444  1  0.24699800  0.07847800  0.11961400  1
  H  452  1  0.75079500  0.43841100  0.82311700  1
  H  453  1  0.71716900  0.45493200  0.80003300  1
  H  454  1  0.74698600  0.42622900  0.88498500  1
  H  462  1  0.25355800  0.93840600  0.68147900  1
  H  463  1  0.28707900  0.95510500  0.70460100  1
  H  464  1  0.25758700  0.92595700  0.61956300  1
  H  472  1  0.06645300  0.18164400  0.25099100  1
  H  473  1  0.04975200  0.20473800  0.21745700  1
  H  474  1  0.07863800  0.11974000  0.24711400  1
  H  482  1  0.56626000  0.32345800  0.75356200  1
  H  483  1  0.54950500  0.30028600  0.78701700  1
  H  484  1  0.57849300  0.38534300  0.75761300  1
  H  492  1  0.93827200  0.68159700  0.25385700  1
  H  493  1  0.95481700  0.70468800  0.28746700  1
  H  494  1  0.92601800  0.61973100  0.25769800  1
  H  502  1  0.43839500  0.82300500  0.75097600  1
  H  503  1  0.45494300  0.79993200  0.71735600  1
  H  504  1  0.42598100  0.88492400  0.74709000  1
  C  1  1  0.12987500  0.01754400  0.24025900  1
  C  2  1  0.10201100  0.04311200  0.23861400  1
  C  3  1  0.09484200  0.06200000  0.20695200  1
  C  4  1  0.11879400  0.05724100  0.17836300  1
  C  5  1  0.14950200  0.03538000  0.17997500  1
  C  6  1  0.15420200  0.01379100  0.21092400  1
  C  9  1  0.12987300  0.99292600  0.26946800  1
  C  10  1  0.15811700  0.99137500  0.29515400  1
  C  11  1  0.16229900  0.95988600  0.31607300  1
  C  12  1  0.13706600  0.93217800  0.31158200  1
  C  13  1  0.10711000  0.93430700  0.28895600  1
  C  14  1  0.10397600  0.96530600  0.26803800  1
  C  23  1  0.37475500  0.98719100  0.74019700  1
  C  24  1  0.40258000  0.96157500  0.73859900  1
  C  25  1  0.40962500  0.94255800  0.70698700  1
  C  26  1  0.38557200  0.94720000  0.67847000  1
  C  27  1  0.35499300  0.96924800  0.67998500  1
  C  28  1  0.35039600  0.99093600  0.71088400  1
  C  31  1  0.37480300  0.01184800  0.76938000  1
  C  32  1  0.34660100  0.01337600  0.79511400  1
  C  33  1  0.34241900  0.04488300  0.81601100  1
  C  34  1  0.36764200  0.07259800  0.81147500  1
  C  35  1  0.39755200  0.07048400  0.78878600  1
  C  36  1  0.40064100  0.03950600  0.76783300  1
  C  45  1  0.87472100  0.51757600  0.26447500  1
  C  46  1  0.90254500  0.54319800  0.26608500  1
  C  47  1  0.90964600  0.56211300  0.29774800  1
  C  48  1  0.88567500  0.55735900  0.32631900  1
  C  49  1  0.85503300  0.53541300  0.32474500  1
  C  50  1  0.85039300  0.51379400  0.29380600  1
  C  53  1  0.87478700  0.49290400  0.23530700  1
  C  54  1  0.84658400  0.49138100  0.20957200  1
  C  55  1  0.84240800  0.45987800  0.18866300  1
  C  56  1  0.86760100  0.43214400  0.19322800  1
  C  57  1  0.89757000  0.43430700  0.21583300  1
  C  58  1  0.90068900  0.46529800  0.23676400  1
  C  67  1  0.62987300  0.48722600  0.76451400  1
  C  68  1  0.60201100  0.46164900  0.76612300  1
  C  69  1  0.59474000  0.44289100  0.79784400  1
  C  70  1  0.61865200  0.44768200  0.82646200  1
  C  71  1  0.64941700  0.46946100  0.82484000  1
  C  72  1  0.65417900  0.49098900  0.79385900  1
  C  75  1  0.62986000  0.51187900  0.73532800  1
  C  76  1  0.65807100  0.51336500  0.70960200  1
  C  77  1  0.66226300  0.54484100  0.68865700  1
  C  78  1  0.63705600  0.57257800  0.69315800  1
  C  79  1  0.60708200  0.57044400  0.71576600  1
  C  80  1  0.60394200  0.53947200  0.73672100  1
  C  89  1  0.24032500  0.12985500  0.01762500  1
  C  90  1  0.23865100  0.10193900  0.04313900  1
  C  91  1  0.20696300  0.09474800  0.06197200  1
  C  92  1  0.17838500  0.11871000  0.05722700  1
  C  93  1  0.18002600  0.14947200  0.03544500  1
  C  94  1  0.21100000  0.15420100  0.01389600  1
  C  97  1  0.26952700  0.12985600  0.99299800  1
  C  98  1  0.29522600  0.15809100  0.99144700  1
  C  99  1  0.31613100  0.16227800  0.95995000  1
  C  100  1  0.31161900  0.13705700  0.93223700  1
  C  101  1  0.28898300  0.10711100  0.93436000  1
  C  102  1  0.26807500  0.10397400  0.96536700  1
  C  111  1  0.74025300  0.37485900  0.98715900  1
  C  112  1  0.73863400  0.40275600  0.96162000  1
  C  113  1  0.70700600  0.40984100  0.94265400  1
  C  114  1  0.67848800  0.38577900  0.94725300  1
  C  115  1  0.68004700  0.35511000  0.96917100  1
  C  116  1  0.71095500  0.35046800  0.99083700  1
  C  119  1  0.76942800  0.37488100  0.01183100  1
  C  120  1  0.79515900  0.34667800  0.01335500  1
  C  121  1  0.81604600  0.34248000  0.04486900  1
  C  122  1  0.81150500  0.36769200  0.07259200  1
  C  123  1  0.78882600  0.39761000  0.07047700  1
  C  124  1  0.76787800  0.40071300  0.03949600  1
  C  133  1  0.26453400  0.87469400  0.51750100  1
  C  134  1  0.26612600  0.90250000  0.54314400  1
  C  135  1  0.29779400  0.90963500  0.56204700  1
  C  136  1  0.32639300  0.88570500  0.55725000  1
  C  137  1  0.32481700  0.85504900  0.53531900  1
  C  138  1  0.29387800  0.85038800  0.51370800  1
  C  141  1  0.23536400  0.87475300  0.49283300  1
  C  142  1  0.20963100  0.84654700  0.49131700  1
  C  143  1  0.18871500  0.84236800  0.45982000  1
  C  144  1  0.19327900  0.86755300  0.43207700  1
  C  145  1  0.21588700  0.89751900  0.43423200  1
  C  146  1  0.23681900  0.90064600  0.46522100  1
  C  155  1  0.76454900  0.62992400  0.48729000  1
  C  156  1  0.76612800  0.60208800  0.46168400  1
  C  157  1  0.79781200  0.59485500  0.44285400  1
  C  158  1  0.82642200  0.61878800  0.44760000  1
  C  159  1  0.82485100  0.64949500  0.46946900  1
  C  160  1  0.79390200  0.65422200  0.49105100  1
  C  163  1  0.73537400  0.62991000  0.51195100  1
  C  164  1  0.70964800  0.65812400  0.51343700  1
  C  165  1  0.68870500  0.66231100  0.54491300  1
  C  166  1  0.69320900  0.63710700  0.57265200  1
  C  167  1  0.71580800  0.60712800  0.57051400  1
  C  168  1  0.73676100  0.60399000  0.53953800  1
  C  177  1  0.01759900  0.24030600  0.12989900  1
  C  178  1  0.04317700  0.23862800  0.10204500  1
  C  179  1  0.06209600  0.20696500  0.09497400  1
  C  180  1  0.05732300  0.17840300  0.11894900  1
  C  181  1  0.03540000  0.18002800  0.14961500  1
  C  182  1  0.01381700  0.21099500  0.15425300  1
  C  185  1  0.99299500  0.26952700  0.12986100  1
  C  186  1  0.99145300  0.29523400  0.15808700  1
  C  187  1  0.95996300  0.31615800  0.16225700  1
  C  188  1  0.93225600  0.31165700  0.13702700  1
  C  189  1  0.93437600  0.28900400  0.10709000  1
  C  190  1  0.96537500  0.26807800  0.10396900  1
  C  199  1  0.98717800  0.74020200  0.37489400  1
  C  200  1  0.96165200  0.73856700  0.40280400  1
  C  201  1  0.94277100  0.70690200  0.40996000  1
  C  202  1  0.94745300  0.67835000  0.38596000  1
  C  203  1  0.96928200  0.67994500  0.35523000  1
  C  204  1  0.99088000  0.71088900  0.35052600  1
  C  207  1  0.01183700  0.76938800  0.37489900  1
  C  208  1  0.01335200  0.79511400  0.34669100  1
  C  209  1  0.04486100  0.81600600  0.34248300  1
  C  210  1  0.07259000  0.81147500  0.36769200  1
  C  211  1  0.07048700  0.78879900  0.39761300  1
  C  212  1  0.03951000  0.76784900  0.40072600  1
  C  221  1  0.51750900  0.26451100  0.87461900  1
  C  222  1  0.54319200  0.26610600  0.90238600  1
  C  223  1  0.56213700  0.29775900  0.90946000  1
  C  224  1  0.55733000  0.32634300  0.88551000  1
  C  225  1  0.53529300  0.32479000  0.85493200  1
  C  226  1  0.51367100  0.29385400  0.85031300  1
  C  229  1  0.49284900  0.23533400  0.87471000  1
  C  230  1  0.49131400  0.20959700  0.84650700  1
  C  231  1  0.45981700  0.18867900  0.84235500  1
  C  232  1  0.43209300  0.19324200  0.86756100  1
  C  233  1  0.43426700  0.21585200  0.89752200  1
  C  234  1  0.46525600  0.23678800  0.90062500  1
  C  243  1  0.48721500  0.76446900  0.62987600  1
  C  244  1  0.46163900  0.76604800  0.60200900  1
  C  245  1  0.44273600  0.79770300  0.59484100  1
  C  246  1  0.44739700  0.82627900  0.61882800  1
  C  247  1  0.46926700  0.82471200  0.64953200  1
  C  248  1  0.49091000  0.79379600  0.65421900  1
  C  251  1  0.51190000  0.73531500  0.62986200  1
  C  252  1  0.51338100  0.70957300  0.65806300  1
  C  253  1  0.54486800  0.68864900  0.66226600  1
  C  254  1  0.57262000  0.69318500  0.63708300  1
  C  255  1  0.57049200  0.71579800  0.60711400  1
  C  256  1  0.53950600  0.73673500  0.60396300  1
  C  265  1  0.05127000  0.84248500  0.31613600  1
  C  266  1  0.03099100  0.87414300  0.31329500  1
  C  267  1  0.04672300  0.90616800  0.30015900  1
  C  268  1  0.08302700  0.90504600  0.28882600  1
  C  275  1  0.45330800  0.16224300  0.81597400  1
  C  276  1  0.47366400  0.13064500  0.81314000  1
  C  277  1  0.45792600  0.09863400  0.79996900  1
  C  278  1  0.42160800  0.09974900  0.78863100  1
  C  285  1  0.95342500  0.34252800  0.18868000  1
  C  286  1  0.97372200  0.37417800  0.19151700  1
  C  287  1  0.95795200  0.40617800  0.20467700  1
  C  288  1  0.92159900  0.40502000  0.21590300  1
  C  295  1  0.55127800  0.66217000  0.68863100  1
  C  296  1  0.53091100  0.63057600  0.69150700  1
  C  297  1  0.54670500  0.59854900  0.70456900  1
  C  298  1  0.58302400  0.59972600  0.71585300  1
  C  305  1  0.31608800  0.05129700  0.84250700  1
  C  306  1  0.31324700  0.03100500  0.87415300  1
  C  307  1  0.30013500  0.04673000  0.90619200  1
  C  308  1  0.28882600  0.08304200  0.90508900  1
  C  315  1  0.81602400  0.45337700  0.16223000  1
  C  316  1  0.81319900  0.47372800  0.13062900  1
  C  317  1  0.80002500  0.45798700  0.09861900  1
  C  318  1  0.78867900  0.42167400  0.09973900  1
  C  325  1  0.18872700  0.95335300  0.34244000  1
  C  326  1  0.19156900  0.97365800  0.37408200  1
  C  327  1  0.20473200  0.95789600  0.40608800  1
  C  328  1  0.21595400  0.92154100  0.40493700  1
  C  335  1  0.68864900  0.55126500  0.66220400  1
  C  336  1  0.69154200  0.53091700  0.63060000  1
  C  337  1  0.70460900  0.54672900  0.59858600  1
  C  338  1  0.71587700  0.58305600  0.59978500  1
  C  345  1  0.84253600  0.31614700  0.05128000  1
  C  346  1  0.87418500  0.31330300  0.03098900  1
  C  347  1  0.90621800  0.30017500  0.04671300  1
  C  348  1  0.90511000  0.28884700  0.08301900  1
  C  355  1  0.16227200  0.81598700  0.45333100  1
  C  356  1  0.13068000  0.81316900  0.47369900  1
  C  357  1  0.09866000  0.80000100  0.45797600  1
  C  358  1  0.09976100  0.78865200  0.42166100  1
  C  365  1  0.34250200  0.18870300  0.95340900  1
  C  366  1  0.37415900  0.19153200  0.97369300  1
  C  367  1  0.40615700  0.20469100  0.95791200  1
  C  368  1  0.40498800  0.21592400  0.92156200  1
  C  375  1  0.66223400  0.68868400  0.55132400  1
  C  376  1  0.63064600  0.69157100  0.53095100  1
  C  377  1  0.59861300  0.70462400  0.54674000  1
  C  378  1  0.59977900  0.71589900  0.58306400  1
  C  385  1  0.58776700  0.30235600  0.93686100  1
  C  386  1  0.61878000  0.28116800  0.93952200  1
  C  387  1  0.65098600  0.29609400  0.95317400  1
  C  388  1  0.65020600  0.33170900  0.96671000  1
  C  395  1  0.91722300  0.70222500  0.43741000  1
  C  396  1  0.88616500  0.72339400  0.43998800  1
  C  397  1  0.85391700  0.70849200  0.45356600  1
  C  398  1  0.85474200  0.67283400  0.46697300  1
  C  405  1  0.08767400  0.20226400  0.06755800  1
  C  406  1  0.11874100  0.22341400  0.06496700  1
  C  407  1  0.15097100  0.20848400  0.05136500  1
  C  408  1  0.15014200  0.17281600  0.03797100  1
  C  415  1  0.41714400  0.80226500  0.56740000  1
  C  416  1  0.38613900  0.78105400  0.56471000  1
  C  417  1  0.35391400  0.79605400  0.55119600  1
  C  418  1  0.35469700  0.83170400  0.53773800  1
  C  425  1  0.80231600  0.56749900  0.41716200  1
  C  426  1  0.78115200  0.56490200  0.38612800  1
  C  427  1  0.79604600  0.55131600  0.35388200  1
  C  428  1  0.83165900  0.53777500  0.35461200  1
  C  435  1  0.20227700  0.06734000  0.08756600  1
  C  436  1  0.22342900  0.06479200  0.11863600  1
  C  437  1  0.20850400  0.05124700  0.15088800  1
  C  438  1  0.17283400  0.03785000  0.15008100  1
  C  445  1  0.70235300  0.43731900  0.91714600  1
  C  446  1  0.72341800  0.43991600  0.88601900  1
  C  447  1  0.70846500  0.45352100  0.85380500  1
  C  448  1  0.67280200  0.46690200  0.85469700  1
  C  455  1  0.30236100  0.93703400  0.58768700  1
  C  456  1  0.28107300  0.93977500  0.61863600  1
  C  457  1  0.29599800  0.95335300  0.65086900  1
  C  458  1  0.33160000  0.96689900  0.65012300  1
  C  465  1  0.06749200  0.08768900  0.20243200  1
  C  466  1  0.06492700  0.11875400  0.22356100  1
  C  467  1  0.05134300  0.15098800  0.20864400  1
  C  468  1  0.03777500  0.15019900  0.17305200  1
  C  475  1  0.56737600  0.41722600  0.80245400  1
  C  476  1  0.56477400  0.38627200  0.78116300  1
  C  477  1  0.55114300  0.35401000  0.79598500  1
  C  478  1  0.53757500  0.35468700  0.83158900  1
  C  485  1  0.93710800  0.58766300  0.30241200  1
  C  486  1  0.93971600  0.61871600  0.28125900  1
  C  487  1  0.95334500  0.65092200  0.29620900  1
  C  488  1  0.96673400  0.65006700  0.33188300  1
  C  495  1  0.43704200  0.91694900  0.70243300  1
  C  496  1  0.43976900  0.88590400  0.72358800  1
  C  497  1  0.45331300  0.85369300  0.70858200  1
  C  498  1  0.46675000  0.85455100  0.67294600  1
  N  17  1  0.17998700  0.98812600  0.21064400  1
  N  18  1  0.18241700  0.01825900  0.29742900  1
  N  39  1  0.32467800  0.01666800  0.71059600  1
  N  40  1  0.32234500  0.98645900  0.79744700  1
  N  61  1  0.82465400  0.48808100  0.29408100  1
  N  62  1  0.82230200  0.51827900  0.20724900  1
  N  83  1  0.67996100  0.51665700  0.79415000  1
  N  84  1  0.68233700  0.48645100  0.70731500  1
  N  105  1  0.21074000  0.18002400  0.98826700  1
  N  106  1  0.29752200  0.18237600  0.01834000  1
  N  127  1  0.71067300  0.32468600  0.01650600  1
  N  128  1  0.79750300  0.32243500  0.98642700  1
  N  149  1  0.29417100  0.82465400  0.48799300  1
  N  150  1  0.20731300  0.82227000  0.51822000  1
  N  171  1  0.79421900  0.67997700  0.51674500  1
  N  172  1  0.70736200  0.68239300  0.48652800  1
  N  193  1  0.98812900  0.21076300  0.18001900  1
  N  194  1  0.01833400  0.29752200  0.18238500  1
  N  215  1  0.01650900  0.71062200  0.32470700  1
  N  216  1  0.98641900  0.79744700  0.32245400  1
  N  237  1  0.48791900  0.29413100  0.82461700  1
  N  238  1  0.51819900  0.20728100  0.82221100  1
  N  259  1  0.51660100  0.79411800  0.67997500  1
  N  260  1  0.48645400  0.70725900  0.68231000  1
  N  269  1  0.09923100  0.87270400  0.29007500  1
  N  270  1  0.08477200  0.84400400  0.30266200  1
  N  271  1  0.02787300  0.93697500  0.30276900  1
  N  279  1  0.40543300  0.13211400  0.78984800  1
  N  280  1  0.41984700  0.16083600  0.80244400  1
  N  281  1  0.47675400  0.06781700  0.80262200  1
  N  289  1  0.90548800  0.37263300  0.21477900  1
  N  290  1  0.91996900  0.34392600  0.20222800  1
  N  291  1  0.97676900  0.43700200  0.20200700  1
  N  299  1  0.59923100  0.63206500  0.71470600  1
  N  300  1  0.58476600  0.66077100  0.70213400  1
  N  301  1  0.52788600  0.56772800  0.70191600  1
  N  309  1  0.29007000  0.09926000  0.87275500  1
  N  310  1  0.30263600  0.08480600  0.84404100  1
  N  311  1  0.30274700  0.02786500  0.93698900  1
  N  319  1  0.78988800  0.40550200  0.13210700  1
  N  320  1  0.80248400  0.41991900  0.16082700  1
  N  321  1  0.80268900  0.47680900  0.06780000  1
  N  329  1  0.21482500  0.90542200  0.37255300  1
  N  330  1  0.20227300  0.91989700  0.34384700  1
  N  331  1  0.20206500  0.97672100  0.43690600  1
  N  339  1  0.71471300  0.59924400  0.63213200  1
  N  340  1  0.70214000  0.58475800  0.66082700  1
  N  341  1  0.70197200  0.52792300  0.56775400  1
  N  349  1  0.87277400  0.29009900  0.09923600  1
  N  350  1  0.84406700  0.30268100  0.08478400  1
  N  351  1  0.93701800  0.30278200  0.02785300  1
  N  359  1  0.13212100  0.78985600  0.40547300  1
  N  360  1  0.16085000  0.80244600  0.41987600  1
  N  361  1  0.06785100  0.80267000  0.47681200  1
  N  369  1  0.37259300  0.21480600  0.90546400  1
  N  370  1  0.34389200  0.20225700  0.91995300  1
  N  371  1  0.43698600  0.20201500  0.97671600  1
  N  379  1  0.63211600  0.71474300  0.59927900  1
  N  380  1  0.66082500  0.70217400  0.58481600  1
  N  381  1  0.56779700  0.70198000  0.52791000  1
  N  389  1  0.61806600  0.34839000  0.96587600  1
  N  390  1  0.58942100  0.33514300  0.95189600  1
  N  391  1  0.68169300  0.27737300  0.94879000  1
  N  399  1  0.88686600  0.65615800  0.46639000  1
  N  400  1  0.91553500  0.66947000  0.45251100  1
  N  401  1  0.82321600  0.72719400  0.44906700  1
  N  409  1  0.11798500  0.15620000  0.03856000  1
  N  410  1  0.08932700  0.16951800  0.05244400  1
  N  411  1  0.18167700  0.22717400  0.05589100  1
  N  419  1  0.38684700  0.84834500  0.53845400  1
  N  420  1  0.41550600  0.83505400  0.55236300  1
  N  421  1  0.32320800  0.77735700  0.55567600  1
  N  429  1  0.84835800  0.53854500  0.38673600  1
  N  430  1  0.83510800  0.55246100  0.41541200  1
  N  431  1  0.77730400  0.55576100  0.32319700  1
  N  439  1  0.15620500  0.03839600  0.11793200  1
  N  440  1  0.16952900  0.05223000  0.08925100  1
  N  441  1  0.22719800  0.05576500  0.18159100  1
  N  449  1  0.65619300  0.46628100  0.88685000  1
  N  450  1  0.66957400  0.45239400  0.91547900  1
  N  451  1  0.72712200  0.44900100  0.82307700  1
  N  459  1  0.34836400  0.96607000  0.61803200  1
  N  460  1  0.33515100  0.95207400  0.58937900  1
  N  461  1  0.27726400  0.94891800  0.68155900  1
  N  469  1  0.03852500  0.11807100  0.15635800  1
  N  470  1  0.05244800  0.08941000  0.16963800  1
  N  471  1  0.05581400  0.18169600  0.22734200  1
  N  479  1  0.53830500  0.38678600  0.84834800  1
  N  480  1  0.55225300  0.41549000  0.83519000  1
  N  481  1  0.55562300  0.32334600  0.77721300  1
  N  489  1  0.96610200  0.61790600  0.34849400  1
  N  490  1  0.95219900  0.58925600  0.33517200  1
  N  491  1  0.94885400  0.68164200  0.27753300  1
  N  499  1  0.46597200  0.88667400  0.65626500  1
  N  500  1  0.45202100  0.91529200  0.66960600  1
  N  501  1  0.44887000  0.82296500  0.72725300  1
