# generated using pymatgen
data_Zn3P4H15C14(NO7)2
_symmetry_space_group_name_H-M   'P 1'
_cell_length_a   9.23038000
_cell_length_b   9.69200000
_cell_length_c   31.01347000
_cell_angle_alpha   93.11892000
_cell_angle_beta   90.00000000
_cell_angle_gamma   90.00000000
_symmetry_Int_Tables_number   1
_chemical_formula_structural   Zn3P4H15C14(NO7)2
_chemical_formula_sum   'Zn12 P16 H60 C56 N8 O56'
_cell_volume   2770.38147696
_cell_formula_units_Z   4
loop_
 _symmetry_equiv_pos_site_id
 _symmetry_equiv_pos_as_xyz
  1  'x, y, z'
loop_
 _atom_site_type_symbol
 _atom_site_label
 _atom_site_symmetry_multiplicity
 _atom_site_fract_x
 _atom_site_fract_y
 _atom_site_fract_z
 _atom_site_occupancy
  Zn  Zn0  1  0.72647000  0.47557000  0.86044000  1
  Zn  Zn1  1  0.44884000  0.29411000  0.96001000  1
  Zn  Zn2  1  0.68543000  0.55865000  0.68969000  1
  Zn  Zn3  1  0.22647000  0.52442000  0.63956000  1
  Zn  Zn4  1  0.94883000  0.70588000  0.53999000  1
  Zn  Zn5  1  0.18543000  0.44134000  0.81031000  1
  Zn  Zn6  1  0.27354000  0.52444000  0.13956000  1
  Zn  Zn7  1  0.55115000  0.70588000  0.03999000  1
  Zn  Zn8  1  0.31459000  0.44133000  0.31031000  1
  Zn  Zn9  1  0.77354000  0.47556000  0.36045000  1
  Zn  Zn10  1  0.05115000  0.29412000  0.46001000  1
  Zn  Zn11  1  0.81459000  0.55867000  0.18969000  1
  P  P12  1  0.87804000  0.54121000  0.77713000  1
  P  P13  1  0.92674000  0.25098000  0.81756000  1
  P  P14  1  0.62988000  0.58566000  0.94996000  1
  P  P15  1  0.38727000  0.47862000  0.88780000  1
  P  P16  1  0.37804000  0.45878000  0.72288000  1
  P  P17  1  0.42674000  0.74901000  0.68244000  1
  P  P18  1  0.12989000  0.41433000  0.55005000  1
  P  P19  1  0.88727000  0.52137000  0.61221000  1
  P  P20  1  0.12196000  0.45879000  0.22287000  1
  P  P21  1  0.07326000  0.74904000  0.18243000  1
  P  P22  1  0.37012000  0.41432000  0.05005000  1
  P  P23  1  0.61273000  0.52137000  0.11221000  1
  P  P24  1  0.62195000  0.54121000  0.27713000  1
  P  P25  1  0.57326000  0.25096000  0.31757000  1
  P  P26  1  0.87012000  0.58568000  0.44996000  1
  P  P27  1  0.11274000  0.47863000  0.38779000  1
  H  H28  1  0.64804000  0.35541000  0.74752000  1
  H  H29  1  0.34462000  0.60646000  0.97780000  1
  H  H30  1  0.22394000  0.93010000  0.69745000  1
  H  H31  1  0.87322000  0.35260000  0.70110000  1
  H  H32  1  0.04134000  0.35730000  0.72744000  1
  H  H33  1  0.72697000  0.11213000  0.70359000  1
  H  H34  1  0.77016000  0.86460000  0.68120000  1
  H  H35  1  0.02861000  0.77554000  0.67938000  1
  H  H36  1  0.18868000  0.16047000  0.72156000  1
  H  H37  1  0.52086000  0.71496000  0.86335000  1
  H  H38  1  0.35730000  0.78494000  0.88406000  1
  H  H39  1  0.75346000  0.81597000  0.87949000  1
  H  H40  1  0.88006000  0.04080000  0.89771000  1
  H  H41  1  0.74148000  0.23265000  0.93555000  1
  H  H42  1  0.36796000  0.99256000  0.93820000  1
  H  H43  1  0.14804000  0.64458000  0.75248000  1
  H  H44  1  0.84462000  0.39353000  0.52220000  1
  H  H45  1  0.72394000  0.06989000  0.80255000  1
  H  H46  1  0.37322000  0.64739000  0.79890000  1
  H  H47  1  0.54134000  0.64269000  0.77257000  1
  H  H48  1  0.22697000  0.88786000  0.79642000  1
  H  H49  1  0.27016000  0.13539000  0.81880000  1
  H  H50  1  0.52861000  0.22445000  0.82062000  1
  H  H51  1  0.68868000  0.83952000  0.77845000  1
  H  H52  1  0.02087000  0.28503000  0.63665000  1
  H  H53  1  0.85730000  0.21505000  0.61594000  1
  H  H54  1  0.25346000  0.18402000  0.62052000  1
  H  H55  1  0.38007000  0.95919000  0.60229000  1
  H  H56  1  0.24149000  0.76734000  0.56445000  1
  H  H57  1  0.86795000  0.00743000  0.56180000  1
  H  H58  1  0.35196000  0.64459000  0.25248000  1
  H  H59  1  0.65535000  0.39352000  0.02220000  1
  H  H60  1  0.77605000  0.06990000  0.30255000  1
  H  H61  1  0.12679000  0.64739000  0.29890000  1
  H  H62  1  0.95866000  0.64269000  0.27256000  1
  H  H63  1  0.27303000  0.88787000  0.29642000  1
  H  H64  1  0.22984000  0.13540000  0.31880000  1
  H  H65  1  0.97139000  0.22447000  0.32062000  1
  H  H66  1  0.81130000  0.83955000  0.27845000  1
  H  H67  1  0.47914000  0.28503000  0.13666000  1
  H  H68  1  0.64270000  0.21505000  0.11594000  1
  H  H69  1  0.24654000  0.18403000  0.12052000  1
  H  H70  1  0.11993000  0.95920000  0.10229000  1
  H  H71  1  0.25849000  0.76734000  0.06445000  1
  H  H72  1  0.63203000  0.00742000  0.06180000  1
  H  H73  1  0.85196000  0.35541000  0.24752000  1
  H  H74  1  0.15535000  0.60648000  0.47780000  1
  H  H75  1  0.27606000  0.93009000  0.19745000  1
  H  H76  1  0.62679000  0.35261000  0.20110000  1
  H  H77  1  0.45867000  0.35731000  0.22744000  1
  H  H78  1  0.77303000  0.11212000  0.20358000  1
  H  H79  1  0.72984000  0.86460000  0.18120000  1
  H  H80  1  0.47139000  0.77552000  0.17938000  1
  H  H81  1  0.31131000  0.16045000  0.22155000  1
  H  H82  1  0.97914000  0.71497000  0.36334000  1
  H  H83  1  0.14270000  0.78495000  0.38406000  1
  H  H84  1  0.74654000  0.81597000  0.37948000  1
  H  H85  1  0.61992000  0.04080000  0.39771000  1
  H  H86  1  0.75849000  0.23265000  0.43555000  1
  H  H87  1  0.13203000  0.99257000  0.43820000  1
  C  C88  1  0.85608000  0.34624000  0.77030000  1
  C  C89  1  0.93466000  0.30719000  0.72718000  1
  C  C90  1  0.95341000  0.15635000  0.71545000  1
  C  C91  1  0.83661000  0.07034000  0.70321000  1
  C  C92  1  0.86058000  0.93229000  0.69026000  1
  C  C93  1  0.00155000  0.88173000  0.68912000  1
  C  C94  1  0.09208000  0.10002000  0.71353000  1
  C  C95  1  0.45102000  0.63754000  0.92350000  1
  C  C96  1  0.46816000  0.75674000  0.89298000  1
  C  C97  1  0.55094000  0.88534000  0.90800000  1
  C  C98  1  0.69709000  0.90075000  0.89680000  1
  C  C99  1  0.76816000  0.02482000  0.90715000  1
  C  C100  1  0.69181000  0.13247000  0.92801000  1
  C  C101  1  0.48182000  0.99787000  0.92926000  1
  C  C102  1  0.35608000  0.65375000  0.72970000  1
  C  C103  1  0.43466000  0.69280000  0.77282000  1
  C  C104  1  0.45341000  0.84364000  0.78455000  1
  C  C105  1  0.33662000  0.92965000  0.79680000  1
  C  C106  1  0.36058000  0.06770000  0.80974000  1
  C  C107  1  0.50155000  0.11825000  0.81088000  1
  C  C108  1  0.59208000  0.89996000  0.78648000  1
  C  C109  1  0.95101000  0.36244000  0.57651000  1
  C  C110  1  0.96816000  0.24325000  0.60702000  1
  C  C111  1  0.05094000  0.11465000  0.59200000  1
  C  C112  1  0.19709000  0.09924000  0.60320000  1
  C  C113  1  0.26816000  0.97517000  0.59285000  1
  C  C114  1  0.19182000  0.86752000  0.57200000  1
  C  C115  1  0.98182000  0.00212000  0.57075000  1
  C  C116  1  0.14392000  0.65376000  0.22970000  1
  C  C117  1  0.06534000  0.69281000  0.27282000  1
  C  C118  1  0.04658000  0.84364000  0.28455000  1
  C  C119  1  0.16338000  0.92966000  0.29680000  1
  C  C120  1  0.13941000  0.06771000  0.30974000  1
  C  C121  1  0.99845000  0.11827000  0.31088000  1
  C  C122  1  0.90791000  0.89998000  0.28648000  1
  C  C123  1  0.54898000  0.36245000  0.07651000  1
  C  C124  1  0.53184000  0.24325000  0.10702000  1
  C  C125  1  0.44905000  0.11465000  0.09201000  1
  C  C126  1  0.30291000  0.09924000  0.10321000  1
  C  C127  1  0.23183000  0.97517000  0.09286000  1
  C  C128  1  0.30817000  0.86752000  0.07200000  1
  C  C129  1  0.51817000  0.00211000  0.07075000  1
  C  C130  1  0.64391000  0.34624000  0.27030000  1
  C  C131  1  0.56534000  0.30719000  0.22718000  1
  C  C132  1  0.54658000  0.15635000  0.21545000  1
  C  C133  1  0.66338000  0.07033000  0.20320000  1
  C  C134  1  0.63941000  0.93228000  0.19026000  1
  C  C135  1  0.49845000  0.88173000  0.18912000  1
  C  C136  1  0.40792000  0.10002000  0.21352000  1
  C  C137  1  0.04898000  0.63755000  0.42349000  1
  C  C138  1  0.03184000  0.75675000  0.39298000  1
  C  C139  1  0.94905000  0.88535000  0.40800000  1
  C  C140  1  0.80290000  0.90076000  0.39680000  1
  C  C141  1  0.73183000  0.02482000  0.40714000  1
  C  C142  1  0.80817000  0.13248000  0.42800000  1
  C  C143  1  0.01817000  0.99788000  0.42925000  1
  N  N144  1  0.11259000  0.96654000  0.70052000  1
  N  N145  1  0.55054000  0.11943000  0.93887000  1
  N  N146  1  0.61259000  0.03345000  0.79948000  1
  N  N147  1  0.05055000  0.88056000  0.56113000  1
  N  N148  1  0.88741000  0.03346000  0.29948000  1
  N  N149  1  0.44944000  0.88056000  0.06113000  1
  N  N150  1  0.38741000  0.96653000  0.20052000  1
  N  N151  1  0.94944000  0.11944000  0.43887000  1
  O  O152  1  0.77855000  0.59616000  0.81398000  1
  O  O153  1  0.83519000  0.59830000  0.73379000  1
  O  O154  1  0.04201000  0.56938000  0.78589000  1
  O  O155  1  0.85664000  0.31920000  0.85866000  1
  O  O156  1  0.09349000  0.26666000  0.81794000  1
  O  O157  1  0.88440000  0.10013000  0.80935000  1
  O  O158  1  0.70701000  0.31229000  0.77061000  1
  O  O159  1  0.74363000  0.59067000  0.91438000  1
  O  O160  1  0.60793000  0.44106000  0.96793000  1
  O  O161  1  0.65217000  0.70129000  0.98511000  1
  O  O162  1  0.27128000  0.54213000  0.85944000  1
  O  O163  1  0.52009000  0.42375000  0.86249000  1
  O  O164  1  0.32213000  0.37544000  0.91818000  1
  O  O165  1  0.34790000  0.67425000  0.95473000  1
  O  O166  1  0.27855000  0.40383000  0.68602000  1
  O  O167  1  0.33519000  0.40169000  0.76621000  1
  O  O168  1  0.54201000  0.43061000  0.71411000  1
  O  O169  1  0.35664000  0.68079000  0.64134000  1
  O  O170  1  0.59349000  0.73333000  0.68206000  1
  O  O171  1  0.38440000  0.89986000  0.69065000  1
  O  O172  1  0.20701000  0.68770000  0.72940000  1
  O  O173  1  0.24363000  0.40932000  0.58562000  1
  O  O174  1  0.10793000  0.55893000  0.53207000  1
  O  O175  1  0.15217000  0.29870000  0.51489000  1
  O  O176  1  0.77128000  0.45785000  0.64056000  1
  O  O177  1  0.02009000  0.57624000  0.63751000  1
  O  O178  1  0.82212000  0.62455000  0.58182000  1
  O  O179  1  0.84790000  0.32574000  0.54528000  1
  O  O180  1  0.22146000  0.40385000  0.18602000  1
  O  O181  1  0.16481000  0.40170000  0.26621000  1
  O  O182  1  0.95799000  0.43061000  0.21411000  1
  O  O183  1  0.14336000  0.68081000  0.14133000  1
  O  O184  1  0.90651000  0.73337000  0.18206000  1
  O  O185  1  0.11560000  0.89989000  0.19065000  1
  O  O186  1  0.29299000  0.68770000  0.22939000  1
  O  O187  1  0.25636000  0.40932000  0.08562000  1
  O  O188  1  0.39207000  0.55891000  0.03207000  1
  O  O189  1  0.34782000  0.29869000  0.01489000  1
  O  O190  1  0.72873000  0.45786000  0.14056000  1
  O  O191  1  0.47993000  0.57624000  0.13753000  1
  O  O192  1  0.67787000  0.62455000  0.08182000  1
  O  O193  1  0.65210000  0.32574000  0.04528000  1
  O  O194  1  0.72145000  0.59614000  0.31398000  1
  O  O195  1  0.66481000  0.59830000  0.23379000  1
  O  O196  1  0.45799000  0.56939000  0.28589000  1
  O  O197  1  0.64336000  0.31919000  0.35867000  1
  O  O198  1  0.40651000  0.26663000  0.31794000  1
  O  O199  1  0.61560000  0.10011000  0.30935000  1
  O  O200  1  0.79299000  0.31230000  0.27061000  1
  O  O201  1  0.75636000  0.59067000  0.41439000  1
  O  O202  1  0.89207000  0.44109000  0.46793000  1
  O  O203  1  0.84781000  0.70131000  0.48511000  1
  O  O204  1  0.22873000  0.54214000  0.35944000  1
  O  O205  1  0.97993000  0.42376000  0.36248000  1
  O  O206  1  0.17787000  0.37545000  0.41818000  1
  O  O207  1  0.15210000  0.67425000  0.45472000  1
