# generated using pymatgen
data_H27(C23N2)2
_symmetry_space_group_name_H-M   'P 1'
_cell_length_a   32.17400000
_cell_length_b   32.17400000
_cell_length_c   69.76450000
_cell_angle_alpha   89.99980000
_cell_angle_beta   89.99960000
_cell_angle_gamma   60.00000000
_symmetry_Int_Tables_number   1
_chemical_formula_structural   H27(C23N2)2
_chemical_formula_sum   'H162 C276 N24'
_cell_volume   62542.49934066
_cell_formula_units_Z   6
loop_
 _symmetry_equiv_pos_site_id
 _symmetry_equiv_pos_as_xyz
  1  'x, y, z'
loop_
 _atom_site_type_symbol
 _atom_site_label
 _atom_site_symmetry_multiplicity
 _atom_site_fract_x
 _atom_site_fract_y
 _atom_site_fract_z
 _atom_site_occupancy
  H  73  1  0.14948100  0.40050700  0.13647900  1
  H  74  1  0.17096400  0.44531700  0.11562000  1
  H  75  1  0.11423500  0.34367400  0.08864000  1
  H  76  1  0.13478200  0.38937900  0.06780400  1
  H  77  1  0.08131000  0.49133100  0.07193800  1
  H  78  1  0.07981700  0.55098300  0.05104200  1
  H  79  1  0.23037600  0.43314100  0.08031000  1
  H  80  1  0.22895900  0.49270400  0.05899300  1
  H  81  1  0.15029300  0.59880600  0.07608500  1
  H  82  1  0.14375400  0.68079400  0.07607700  1
  H  83  1  0.14727900  0.63966800  0.02045000  1
  H  84  1  0.14736500  0.63961600  0.98681400  1
  H  85  1  0.16003000  0.47527600  0.02169700  1
  H  86  1  0.15619000  0.47703500  0.98540400  1
  H  87  1  0.07381400  0.55188000  0.95653200  1
  H  88  1  0.07578400  0.49400100  0.93439700  1
  H  89  1  0.22173500  0.49860600  0.94747400  1
  H  90  1  0.22358700  0.44192700  0.92495300  1
  H  91  1  0.14652600  0.60061800  0.93117300  1
  H  92  1  0.14763800  0.67885600  0.93116600  1
  H  93  1  0.13459600  0.80403400  0.02167600  1
  H  94  1  0.13850700  0.80222100  0.98538500  1
  H  95  1  0.22074100  0.72730900  0.95648500  1
  H  96  1  0.21882500  0.78516900  0.93435500  1
  H  97  1  0.07275200  0.78085500  0.94750000  1
  H  98  1  0.07094700  0.83751700  0.92498200  1
  H  99  1  0.07770500  0.91082200  0.92519300  1
  H  100  1  0.06669100  0.96565000  0.90049200  1
  H  101  1  0.19646300  0.86211800  0.87468900  1
  H  102  1  0.20589800  0.80595800  0.89889900  1
  H  103  1  0.06534700  0.78688900  0.05890400  1
  H  104  1  0.06391800  0.84647100  0.08021400  1
  H  105  1  0.15944800  0.89013600  0.06776400  1
  H  106  1  0.17994100  0.93592600  0.08859800  1
  H  107  1  0.14477600  0.87903400  0.13646200  1
  H  108  1  0.12337200  0.83412100  0.11558500  1
  H  109  1  0.21306000  0.78801500  0.07198400  1
  H  110  1  0.21457100  0.72834000  0.05109600  1
  H  111  1  0.21694800  0.36852800  0.92517700  1
  H  112  1  0.22797000  0.31367000  0.90047600  1
  H  113  1  0.08863700  0.47330500  0.89893300  1
  H  114  1  0.09806900  0.41714200  0.87472200  1
  H  187  1  0.40790000  0.87679200  0.46982900  1
  H  188  1  0.45269700  0.81051700  0.44894200  1
  H  189  1  0.35104100  0.96894400  0.42199000  1
  H  190  1  0.39672100  0.90270900  0.40115000  1
  H  191  1  0.49870100  0.85417100  0.40523200  1
  H  192  1  0.55828800  0.79598900  0.38432300  1
  H  193  1  0.44048100  0.76335200  0.41367900  1
  H  194  1  0.49998200  0.70517500  0.39234900  1
  H  195  1  0.60610600  0.67772400  0.40941300  1
  H  196  1  0.68810800  0.60229700  0.40941200  1
  H  197  1  0.64694800  0.63981400  0.35378200  1
  H  198  1  0.64695600  0.63982900  0.32014600  1
  H  199  1  0.48255800  0.79145300  0.35501700  1
  H  200  1  0.48432100  0.79351900  0.31872400  1
  H  201  1  0.55928000  0.80099800  0.28983900  1
  H  202  1  0.50143000  0.85693000  0.26770400  1
  H  203  1  0.50581600  0.70649500  0.28082300  1
  H  204  1  0.44915800  0.76134600  0.25830200  1
  H  205  1  0.60785600  0.67952000  0.26450100  1
  H  206  1  0.68609300  0.60017000  0.26450100  1
  H  207  1  0.81135000  0.48817500  0.35501900  1
  H  208  1  0.80953700  0.48605400  0.31872700  1
  H  209  1  0.73464700  0.47869300  0.28981200  1
  H  210  1  0.79251300  0.42278800  0.26767100  1
  H  211  1  0.78812400  0.57320500  0.28084300  1
  H  212  1  0.84479100  0.51838400  0.25831600  1
  H  213  1  0.91813800  0.43828800  0.25853000  1
  H  214  1  0.97299600  0.39446300  0.23383500  1
  H  215  1  0.86943600  0.36828300  0.20800600  1
  H  216  1  0.81327700  0.41499500  0.23221300  1
  H  217  1  0.79424900  0.57455500  0.39222000  1
  H  218  1  0.85383200  0.51638900  0.41352800  1
  H  219  1  0.89738400  0.37713000  0.40109500  1
  H  220  1  0.94310700  0.31089500  0.42193000  1
  H  221  1  0.88647000  0.40303200  0.46977500  1
  H  222  1  0.84162300  0.46933000  0.44890500  1
  H  223  1  0.79532700  0.42574400  0.40531100  1
  H  224  1  0.73565800  0.48390900  0.38442600  1
  H  225  1  0.37581400  0.84144800  0.25852700  1
  H  226  1  0.32098000  0.88528800  0.23382700  1
  H  227  1  0.48068300  0.86478000  0.23223700  1
  H  228  1  0.42454200  0.91151100  0.20803400  1
  H  301  1  0.88419500  0.14198600  0.80313300  1
  H  302  1  0.81789300  0.16347100  0.78225900  1
  H  303  1  0.97627100  0.10689200  0.75527800  1
  H  304  1  0.90996100  0.12748800  0.73443500  1
  H  305  1  0.86137700  0.07396200  0.73858900  1
  H  306  1  0.80314400  0.07259600  0.71770200  1
  H  307  1  0.77076600  0.22306300  0.74695200  1
  H  308  1  0.71253800  0.22178300  0.72563800  1
  H  309  1  0.68485800  0.14326900  0.74274200  1
  H  310  1  0.60948600  0.13659700  0.74273400  1
  H  311  1  0.64718400  0.13996200  0.68710700  1
  H  312  1  0.64732800  0.13972600  0.65347100  1
  H  313  1  0.79881000  0.15274000  0.68835900  1
  H  314  1  0.80097200  0.14876900  0.65206800  1
  H  315  1  0.80840400  0.06641100  0.62316800  1
  H  316  1  0.86436300  0.06833400  0.60105100  1
  H  317  1  0.71394900  0.21439600  0.61417300  1
  H  318  1  0.76882400  0.21620600  0.59166600  1
  H  319  1  0.68684900  0.13952000  0.59783000  1
  H  320  1  0.60751400  0.14060900  0.59782400  1
  H  321  1  0.49568500  0.12695400  0.68832400  1
  H  322  1  0.49361100  0.13083900  0.65203100  1
  H  323  1  0.48608200  0.21336100  0.62319400  1
  H  324  1  0.43011300  0.21148500  0.60106400  1
  H  325  1  0.58061500  0.06543000  0.61409600  1
  H  326  1  0.52571900  0.06367300  0.59158300  1
  H  327  1  0.44563200  0.07041300  0.59185500  1
  H  328  1  0.40180800  0.05939300  0.56716700  1
  H  329  1  0.37550500  0.18920500  0.54136400  1
  H  330  1  0.42224300  0.19863700  0.56558000  1
  H  331  1  0.58200900  0.05800600  0.72562300  1
  H  332  1  0.52382900  0.05658600  0.74692100  1
  H  333  1  0.38440600  0.15222000  0.73440500  1
  H  334  1  0.31818300  0.17270300  0.75525800  1
  H  335  1  0.41035300  0.13734600  0.80307300  1
  H  336  1  0.47660500  0.11592200  0.78220200  1
  H  337  1  0.43294300  0.20563800  0.73852600  1
  H  338  1  0.49113000  0.20714100  0.71765400  1
  H  339  1  0.84887300  0.20946500  0.59188700  1
  H  340  1  0.89265100  0.22051000  0.56718100  1
  H  341  1  0.87223100  0.08126800  0.56558700  1
  H  342  1  0.91891600  0.09073700  0.54137400  1
  H  349  1  0.15467700  0.38536900  0.84822700  1
  H  354  1  0.20598800  0.26191300  0.88291900  1
  H  359  1  0.22062900  0.32472700  0.78782800  1
  H  360  1  0.17266600  0.37538800  0.81350100  1
  H  361  1  0.28665800  0.24572600  0.77731100  1
  H  362  1  0.33788500  0.12812900  0.81520700  1
  H  369  1  0.39272000  0.88674300  0.18154200  1
  H  374  1  0.26926400  0.95898200  0.21624500  1
  H  379  1  0.33205700  0.88140000  0.12116300  1
  H  380  1  0.38272500  0.87878000  0.14682500  1
  H  381  1  0.25301100  0.89440800  0.11065400  1
  H  382  1  0.13546900  0.96080300  0.14856300  1
  H  389  1  0.89405000  0.14737400  0.51491400  1
  H  394  1  0.96635800  0.19855400  0.54958300  1
  H  399  1  0.88863900  0.21339800  0.45452100  1
  H  400  1  0.88596100  0.16542000  0.48019300  1
  H  401  1  0.90164500  0.27940400  0.44400100  1
  H  402  1  0.96816300  0.33051400  0.48187500  1
  H  409  1  0.13981600  0.89396600  0.84820500  1
  H  414  1  0.08866200  0.01739600  0.88292100  1
  H  419  1  0.07377000  0.95469500  0.78783500  1
  H  420  1  0.12181400  0.90400000  0.81349100  1
  H  421  1  0.00776600  0.03377200  0.77732900  1
  H  422  1  0.95667300  0.15128100  0.81525400  1
  H  429  1  0.90132600  0.39305800  0.18153400  1
  H  434  1  0.02470300  0.32076500  0.21625300  1
  H  439  1  0.96211300  0.39838000  0.12116800  1
  H  440  1  0.91137800  0.40111100  0.14681700  1
  H  441  1  0.04118200  0.38529500  0.11067800  1
  H  442  1  0.15870100  0.31877100  0.14860400  1
  H  449  1  0.40033400  0.13252300  0.51488100  1
  H  454  1  0.32805200  0.08140300  0.54960600  1
  H  459  1  0.40568600  0.06641000  0.45452200  1
  H  460  1  0.40832700  0.11448300  0.48017000  1
  H  461  1  0.39261100  0.00040200  0.44402800  1
  H  462  1  0.32617300  0.94935200  0.48196300  1
  C  1  1  0.14888200  0.61745700  0.06400700  1
  C  2  1  0.14525000  0.66209900  0.06400400  1
  C  3  1  0.14412700  0.67619100  0.04497600  1
  C  5  1  0.15015700  0.60328300  0.04498100  1
  C  6  1  0.15354500  0.55944600  0.03900400  1
  C  7  1  0.15344500  0.54586100  0.01963600  1
  C  9  1  0.15017100  0.54734200  0.98757700  1
  C  10  1  0.15432000  0.50409000  0.99370800  1
  C  11  1  0.15659200  0.50306800  0.01344100  1
  C  12  1  0.14749800  0.56222900  0.96824000  1
  C  13  1  0.14701300  0.60474300  0.96228900  1
  C  15  1  0.14741500  0.67462300  0.96228300  1
  C  16  1  0.14756600  0.66095400  0.94325800  1
  C  17  1  0.14669800  0.61847900  0.94326200  1
  C  18  1  0.14700300  0.71710400  0.96822900  1
  C  19  1  0.14442200  0.73196000  0.98756600  1
  C  21  1  0.14104100  0.73350900  0.01962300  1
  C  22  1  0.13803000  0.77624000  0.01342400  1
  C  23  1  0.14038100  0.77516900  0.99369200  1
  C  24  1  0.14083600  0.71998200  0.03899100  1
  C  25  1  0.14020500  0.75177900  0.05332200  1
  C  26  1  0.18281600  0.75247900  0.05743200  1
  C  27  1  0.18175000  0.78787900  0.06951700  1
  C  28  1  0.13820200  0.82307000  0.07788800  1
  C  29  1  0.09590300  0.82121400  0.07440300  1
  C  30  1  0.09676400  0.78625900  0.06197900  1
  C  31  1  0.13832000  0.85878600  0.08971300  1
  C  32  1  0.13220800  0.85785700  0.10971600  1
  C  33  1  0.14475400  0.88452800  0.12200800  1
  C  34  1  0.16337700  0.91290600  0.11459600  1
  C  35  1  0.16560600  0.91669300  0.09445900  1
  C  36  1  0.15345800  0.88980600  0.08216500  1
  C  37  1  0.14704900  0.74845000  0.95383700  1
  C  38  1  0.18919100  0.75007700  0.94969300  1
  C  39  1  0.18797400  0.78408300  0.93666500  1
  C  40  1  0.14463100  0.81747800  0.92755500  1
  C  41  1  0.10282700  0.81481400  0.93156200  1
  C  42  1  0.10385300  0.78105700  0.94460700  1
  C  43  1  0.14268600  0.85257800  0.91449000  1
  C  44  1  0.17753500  0.84022700  0.89992400  1
  C  45  1  0.17168100  0.87334400  0.88550000  1
  C  46  1  0.13081800  0.91997300  0.88508500  1
  C  47  1  0.09767700  0.93309700  0.90040200  1
  C  48  1  0.10366300  0.90019800  0.91486800  1
  C  49  1  0.14746600  0.53086900  0.95385200  1
  C  50  1  0.10537100  0.52913300  0.94973800  1
  C  51  1  0.10660200  0.49515600  0.93669200  1
  C  52  1  0.14994600  0.46182800  0.92756100  1
  C  53  1  0.19171400  0.46457100  0.93155100  1
  C  54  1  0.19066200  0.49833800  0.94459800  1
  C  55  1  0.15192400  0.42673100  0.91448700  1
  C  56  1  0.19101100  0.37913900  0.91484400  1
  C  57  1  0.19697900  0.34621700  0.90039300  1
  C  58  1  0.16382500  0.35935600  0.88508400  1
  C  59  1  0.12290100  0.40593900  0.88551400  1
  C  60  1  0.11698600  0.43903000  0.89996000  1
  C  61  1  0.15414000  0.52766700  0.05333700  1
  C  62  1  0.11154700  0.52689900  0.05740600  1
  C  63  1  0.19755200  0.49328900  0.06204300  1
  C  64  1  0.19841000  0.45831800  0.07445600  1
  C  65  1  0.15613600  0.45639100  0.07790900  1
  C  66  1  0.11260900  0.49151700  0.06950100  1
  C  67  1  0.15603100  0.42067400  0.08973800  1
  C  68  1  0.14081100  0.38970800  0.08220200  1
  C  69  1  0.12876600  0.36273400  0.09449200  1
  C  70  1  0.13093700  0.36655800  0.11463000  1
  C  71  1  0.14963500  0.39489600  0.12202900  1
  C  72  1  0.16226800  0.42150000  0.10973500  1
  C  115  1  0.62475100  0.66047600  0.39733700  1
  C  116  1  0.66940200  0.61947400  0.39733500  1
  C  117  1  0.68349100  0.60648700  0.37830800  1
  C  119  1  0.61056800  0.67334500  0.37831000  1
  C  120  1  0.56672600  0.71378700  0.37232800  1
  C  121  1  0.55316000  0.72747700  0.35296000  1
  C  123  1  0.55466000  0.72927900  0.32090200  1
  C  124  1  0.51144300  0.76842900  0.32703200  1
  C  125  1  0.51037300  0.76713000  0.34676400  1
  C  126  1  0.56952600  0.71702500  0.30156600  1
  C  127  1  0.61203300  0.67498800  0.29561700  1
  C  129  1  0.68192100  0.60471100  0.29561700  1
  C  130  1  0.66823200  0.61819100  0.27659200  1
  C  131  1  0.62574300  0.66152600  0.27659100  1
  C  132  1  0.72440400  0.56264800  0.30156600  1
  C  133  1  0.73928400  0.55041000  0.32090200  1
  C  135  1  0.74082000  0.55224900  0.35296000  1
  C  136  1  0.78356100  0.51253800  0.34676400  1
  C  137  1  0.78249700  0.51125100  0.32703300  1
  C  138  1  0.72729000  0.56599200  0.37232700  1
  C  139  1  0.75909200  0.53484200  0.38666200  1
  C  140  1  0.75975100  0.49155500  0.39078300  1
  C  141  1  0.79519300  0.45719000  0.40284700  1
  C  142  1  0.83040900  0.46552200  0.41120800  1
  C  143  1  0.82857600  0.50966400  0.40771200  1
  C  144  1  0.79357300  0.54380300  0.39531600  1
  C  145  1  0.86613400  0.42968300  0.42302600  1
  C  146  1  0.86525200  0.43673400  0.44302500  1
  C  147  1  0.89194200  0.39753300  0.45532000  1
  C  148  1  0.92028400  0.35049700  0.44792700  1
  C  149  1  0.92406500  0.34448200  0.42778600  1
  C  150  1  0.89706500  0.38349100  0.41549200  1
  C  151  1  0.75576600  0.53126200  0.28717600  1
  C  152  1  0.75743000  0.48747900  0.28303400  1
  C  153  1  0.79143800  0.45471500  0.27000300  1
  C  154  1  0.82479700  0.46470300  0.26088300  1
  C  155  1  0.82210900  0.50918100  0.26489800  1
  C  156  1  0.78834400  0.54189300  0.27794700  1
  C  157  1  0.85989200  0.43158100  0.24781100  1
  C  158  1  0.84756700  0.40901800  0.23326000  1
  C  159  1  0.88065600  0.38185600  0.21881000  1
  C  160  1  0.92727800  0.37610900  0.21840000  1
  C  161  1  0.94041700  0.39608300  0.23372300  1
  C  162  1  0.90749300  0.42304400  0.24817400  1
  C  163  1  0.53817700  0.74842100  0.28717600  1
  C  164  1  0.53653300  0.79220000  0.28303900  1
  C  165  1  0.50254300  0.82497500  0.27000400  1
  C  166  1  0.46916200  0.81501700  0.26088800  1
  C  167  1  0.47184700  0.77053700  0.26488800  1
  C  168  1  0.50560800  0.73780100  0.27793100  1
  C  169  1  0.43407000  0.84815600  0.24781800  1
  C  170  1  0.38646300  0.85671700  0.24818200  1
  C  171  1  0.35356000  0.88366500  0.23372500  1
  C  172  1  0.36667800  0.90370800  0.21841900  1
  C  173  1  0.41328700  0.89799900  0.21884900  1
  C  174  1  0.44640200  0.87072700  0.23327500  1
  C  175  1  0.53496700  0.74499000  0.38666100  1
  C  176  1  0.53425300  0.78832900  0.39072600  1
  C  177  1  0.50058100  0.73599400  0.39538300  1
  C  178  1  0.46562500  0.77014100  0.40779100  1
  C  179  1  0.46374400  0.81432400  0.41123600  1
  C  180  1  0.49886200  0.82269900  0.40280400  1
  C  181  1  0.42807800  0.85015300  0.42307800  1
  C  182  1  0.39710900  0.89635200  0.41554900  1
  C  183  1  0.37018100  0.93536700  0.42784800  1
  C  184  1  0.37401400  0.92933500  0.44798600  1
  C  185  1  0.40234800  0.88231000  0.45537900  1
  C  186  1  0.42898900  0.84310200  0.44307900  1
  C  229  1  0.66766100  0.14178700  0.73066400  1
  C  230  1  0.62668800  0.13808900  0.73066000  1
  C  231  1  0.61377500  0.13687000  0.71163300  1
  C  233  1  0.68059300  0.14300700  0.71164000  1
  C  234  1  0.72103400  0.14641000  0.70566100  1
  C  235  1  0.73480000  0.14617500  0.68629500  1
  C  237  1  0.73669200  0.14273800  0.65423800  1
  C  238  1  0.77585300  0.14678200  0.66037300  1
  C  239  1  0.77450400  0.14922300  0.68010400  1
  C  240  1  0.72444400  0.14013700  0.63490000  1
  C  241  1  0.68236200  0.13976000  0.62894600  1
  C  243  1  0.61208200  0.14015800  0.62894000  1
  C  244  1  0.62548000  0.14054800  0.60991500  1
  C  245  1  0.66883500  0.13965700  0.60991900  1
  C  246  1  0.57008500  0.13960000  0.63488300  1
  C  247  1  0.55786000  0.13691700  0.65421800  1
  C  249  1  0.55965400  0.13359500  0.68627600  1
  C  250  1  0.52001800  0.13043800  0.68007400  1
  C  251  1  0.51875500  0.13276300  0.66034200  1
  C  252  1  0.57334900  0.13345200  0.70564500  1
  C  253  1  0.54217200  0.13282700  0.71997500  1
  C  254  1  0.49881400  0.17542600  0.72404400  1
  C  255  1  0.46444300  0.17434700  0.73610400  1
  C  256  1  0.47283400  0.13082100  0.74450900  1
  C  257  1  0.51703500  0.08854500  0.74105900  1
  C  258  1  0.55118400  0.08940900  0.72866900  1
  C  259  1  0.43698700  0.13093100  0.75632200  1
  C  260  1  0.44407500  0.12466500  0.77632000  1
  C  261  1  0.40484400  0.13732700  0.78862200  1
  C  262  1  0.35780100  0.15601000  0.78124100  1
  C  263  1  0.35177500  0.15826700  0.76110300  1
  C  264  1  0.39078000  0.14618800  0.74880200  1
  C  265  1  0.53867100  0.13969500  0.62049200  1
  C  266  1  0.49486800  0.18182800  0.61638400  1
  C  267  1  0.46208000  0.18064700  0.60334700  1
  C  268  1  0.47203600  0.13733000  0.59421100  1
  C  269  1  0.51653500  0.09553100  0.59818500  1
  C  270  1  0.54928700  0.09652900  0.61122800  1
  C  271  1  0.43886700  0.13540100  0.58115200  1
  C  272  1  0.41630000  0.17029800  0.56660600  1
  C  273  1  0.38905700  0.16443100  0.55217900  1
  C  274  1  0.38333600  0.12354300  0.55176500  1
  C  275  1  0.40326200  0.09043900  0.56709600  1
  C  276  1  0.43026800  0.09637800  0.58153400  1
  C  277  1  0.75584400  0.14009900  0.62051300  1
  C  278  1  0.79962400  0.09796300  0.61637700  1
  C  279  1  0.83242200  0.09918200  0.60335600  1
  C  280  1  0.82247800  0.14252400  0.59424500  1
  C  281  1  0.77800100  0.18432500  0.59824700  1
  C  282  1  0.74525800  0.18329700  0.61128500  1
  C  283  1  0.85564200  0.14446900  0.58118700  1
  C  284  1  0.86422700  0.18350000  0.58156400  1
  C  285  1  0.89116900  0.18948000  0.56710900  1
  C  286  1  0.91110600  0.15639000  0.55177300  1
  C  287  1  0.90538000  0.11550100  0.55219100  1
  C  288  1  0.87818400  0.10959700  0.56663100  1
  C  289  1  0.75223500  0.14695300  0.71999800  1
  C  290  1  0.79553800  0.10430100  0.72407700  1
  C  291  1  0.74331900  0.19034200  0.72868900  1
  C  292  1  0.77745600  0.19111600  0.74111300  1
  C  293  1  0.82161000  0.14878500  0.74456500  1
  C  294  1  0.82991800  0.10528900  0.73616000  1
  C  295  1  0.85749100  0.14858400  0.75638500  1
  C  296  1  0.90365100  0.13344000  0.74883800  1
  C  297  1  0.94269800  0.12122300  0.76113400  1
  C  298  1  0.93669100  0.12343100  0.78127000  1
  C  299  1  0.88968700  0.14205900  0.78868300  1
  C  300  1  0.85046200  0.15463800  0.77639100  1
  C  343  1  0.17589900  0.32922700  0.86851400  1
  C  344  1  0.20101000  0.27853100  0.86995400  1
  C  346  1  0.22104400  0.26897400  0.83667200  1
  C  347  1  0.19328700  0.31938400  0.83388300  1
  C  348  1  0.17084900  0.34894000  0.84991900  1
  C  350  1  0.24989900  0.23912300  0.82161800  1
  C  351  1  0.31406600  0.16280300  0.81147300  1
  C  352  1  0.31750100  0.18147400  0.79357800  1
  C  353  1  0.28385800  0.23019300  0.78970100  1
  C  356  1  0.25026900  0.25964800  0.80363900  1
  C  357  1  0.22016500  0.30936200  0.80061600  1
  C  358  1  0.19198500  0.33907700  0.81566700  1
  C  363  1  0.33658800  0.92167800  0.20183600  1
  C  364  1  0.28589800  0.94729100  0.20328400  1
  C  366  1  0.27632400  0.93680100  0.17000300  1
  C  367  1  0.32673700  0.91415600  0.16721100  1
  C  368  1  0.35630600  0.90710100  0.18323900  1
  C  370  1  0.24647500  0.93774900  0.15496000  1
  C  371  1  0.17014200  0.94993800  0.14482600  1
  C  372  1  0.18876500  0.92787100  0.12692000  1
  C  373  1  0.23752800  0.91267100  0.12306300  1
  C  376  1  0.26698900  0.91684700  0.13698400  1
  C  377  1  0.31669600  0.89723300  0.13395200  1
  C  378  1  0.34641900  0.89569000  0.14900300  1
  C  383  1  0.92902400  0.16856400  0.53518900  1
  C  384  1  0.95466100  0.19362100  0.53662400  1
  C  386  1  0.94410300  0.21371300  0.50334600  1
  C  387  1  0.92141300  0.18598600  0.50056300  1
  C  388  1  0.91432100  0.16352900  0.51660100  1
  C  390  1  0.94508800  0.24257300  0.48829300  1
  C  391  1  0.95727800  0.30671500  0.47814600  1
  C  392  1  0.93513200  0.31018300  0.46025700  1
  C  393  1  0.92001000  0.27657400  0.45638400  1
  C  396  1  0.92414700  0.24298300  0.47032200  1
  C  397  1  0.90449800  0.21290900  0.46730500  1
  C  398  1  0.90297500  0.18472200  0.48235400  1
  C  403  1  0.11864800  0.95008100  0.86850600  1
  C  404  1  0.09357600  0.00077200  0.86996000  1
  C  406  1  0.07347500  0.01037800  0.83668300  1
  C  407  1  0.10123100  0.95996500  0.83388400  1
  C  408  1  0.12375900  0.93038100  0.84990800  1
  C  410  1  0.04457300  0.04024200  0.82164300  1
  C  411  1  0.98045900  0.11660200  0.81151400  1
  C  412  1  0.97700600  0.09800200  0.79360600  1
  C  413  1  0.01054700  0.04923700  0.78974300  1
  C  416  1  0.04417200  0.01974900  0.80366400  1
  C  417  1  0.07425000  0.97004300  0.80062600  1
  C  418  1  0.10242700  0.94030100  0.81567300  1
  C  423  1  0.95741100  0.35805300  0.20183500  1
  C  424  1  0.00810800  0.33244000  0.20328500  1
  C  426  1  0.01774500  0.34295200  0.17001500  1
  C  427  1  0.96733900  0.36565500  0.16721100  1
  C  428  1  0.93774800  0.37277000  0.18323500  1
  C  430  1  0.04764100  0.34193700  0.15497700  1
  C  431  1  0.12401700  0.32968400  0.14486200  1
  C  432  1  0.10539500  0.35181000  0.12696600  1
  C  433  1  0.05667100  0.36695600  0.12307100  1
  C  436  1  0.02716300  0.36286300  0.13699700  1
  C  437  1  0.97744600  0.38253300  0.13395800  1
  C  438  1  0.94768700  0.38408500  0.14899600  1
  C  443  1  0.36537000  0.11139700  0.53518600  1
  C  444  1  0.33976000  0.08631200  0.53664300  1
  C  446  1  0.35026500  0.06617800  0.50337100  1
  C  447  1  0.37292500  0.09392700  0.50056700  1
  C  448  1  0.37997400  0.11647000  0.51658700  1
  C  450  1  0.34930700  0.03726100  0.48833600  1
  C  451  1  0.33706500  0.97313800  0.47821900  1
  C  452  1  0.35911600  0.96967100  0.46030700  1
  C  453  1  0.37435400  0.00320100  0.45644100  1
  C  456  1  0.37021300  0.03683700  0.47035700  1
  C  457  1  0.38985100  0.06690900  0.46731400  1
  C  458  1  0.39140500  0.09510200  0.48235400  1
  N  4  1  0.14718900  0.63971300  0.03420400  1
  N  8  1  0.14994900  0.57099000  0.00361400  1
  N  14  1  0.14726100  0.63966300  0.97306300  1
  N  20  1  0.14451900  0.70837800  0.00360400  1
  N  118  1  0.64700300  0.63988300  0.36753500  1
  N  122  1  0.57829700  0.70584500  0.33694100  1
  N  128  1  0.64697500  0.63984700  0.30639400  1
  N  134  1  0.71569000  0.57388900  0.33694100  1
  N  232  1  0.64718500  0.13994600  0.70086100  1
  N  236  1  0.71318900  0.14264800  0.67027200  1
  N  242  1  0.64723900  0.13991400  0.63971900  1
  N  248  1  0.58128100  0.13712300  0.67025900  1
  N  345  1  0.22314300  0.25081000  0.85444600  1
  N  355  1  0.28141400  0.19177300  0.82467600  1
  N  365  1  0.25816700  0.95288800  0.18777900  1
  N  375  1  0.19912200  0.95360800  0.15802500  1
  N  385  1  0.96022600  0.21576800  0.52111500  1
  N  395  1  0.96096100  0.27406000  0.49134600  1
  N  405  1  0.07143200  0.02851600  0.85445900  1
  N  415  1  0.01310200  0.08760000  0.82471300  1
  N  425  1  0.03586900  0.32685000  0.18779200  1
  N  435  1  0.09499700  0.32604100  0.15805000  1
  N  445  1  0.33416800  0.06415000  0.52114800  1
  N  455  1  0.33342200  0.00579200  0.49141200  1
