# generated using pymatgen
data_SrLi2H4C10(NO2)4
_symmetry_space_group_name_H-M   'P 1'
_cell_length_a   10.57067000
_cell_length_b   14.84843000
_cell_length_c   14.84843000
_cell_angle_alpha   90.00000000
_cell_angle_beta   90.00000000
_cell_angle_gamma   90.00000000
_symmetry_Int_Tables_number   1
_chemical_formula_structural   SrLi2H4C10(NO2)4
_chemical_formula_sum   'Sr4 Li8 H16 C40 N16 O32'
_cell_volume   2330.57770136
_cell_formula_units_Z   4
loop_
 _symmetry_equiv_pos_site_id
 _symmetry_equiv_pos_as_xyz
  1  'x, y, z'
loop_
 _atom_site_type_symbol
 _atom_site_label
 _atom_site_symmetry_multiplicity
 _atom_site_fract_x
 _atom_site_fract_y
 _atom_site_fract_z
 _atom_site_occupancy
  Sr  Sr1  1  0.59136000  0.50000000  0.00000000  1.0
  Sr  Sr2  1  0.40864000  0.00000000  0.50000000  1.0
  Sr  Sr3  1  0.90865000  0.00000000  0.50000000  1.0
  Sr  Sr4  1  0.09135000  0.50000000  0.00000000  1.0
  Li  Li1  1  0.35558000  0.44558000  0.15279000  1.0
  Li  Li2  1  0.35558000  0.55442000  0.84722000  1.0
  Li  Li3  1  0.64442000  0.15279000  0.55442000  1.0
  Li  Li4  1  0.64442000  0.84722000  0.44558000  1.0
  Li  Li5  1  0.14442000  0.05442000  0.65279000  1.0
  Li  Li6  1  0.14442000  0.94558000  0.34721000  1.0
  Li  Li7  1  0.85558000  0.34721000  0.05442000  1.0
  Li  Li8  1  0.85558000  0.65279000  0.94558000  1.0
  H  H1  1  0.44317000  0.18313000  0.36200000  1.0
  H  H2  1  0.77689000  0.20158000  0.20302000  1.0
  H  H3  1  0.44317000  0.81687000  0.63800000  1.0
  H  H4  1  0.77689000  0.79842000  0.79699000  1.0
  H  H5  1  0.55683000  0.36200000  0.81687000  1.0
  H  H6  1  0.22311000  0.20302000  0.79842000  1.0
  H  H7  1  0.55683000  0.63800000  0.18313000  1.0
  H  H8  1  0.22311000  0.79699000  0.20158000  1.0
  H  H9  1  0.05683000  0.31687000  0.86200000  1.0
  H  H10  1  0.72311000  0.29842000  0.70302000  1.0
  H  H11  1  0.05683000  0.68313000  0.13800000  1.0
  H  H12  1  0.72311000  0.70159000  0.29699000  1.0
  H  H13  1  0.94317000  0.13800000  0.31687000  1.0
  H  H14  1  0.27689000  0.29699000  0.29842000  1.0
  H  H15  1  0.94317000  0.86200000  0.68313000  1.0
  H  H16  1  0.27689000  0.70302000  0.70159000  1.0
  C  C1  1  0.59196000  0.33505000  0.12681000  1.0
  C  C2  1  0.58775000  0.26945000  0.20126000  1.0
  C  C3  1  0.68259000  0.20935000  0.23022000  1.0
  C  C4  1  0.63194000  0.16693000  0.30554000  1.0
  C  C5  1  0.68768000  0.10549000  0.37292000  1.0
  C  C6  1  0.59196000  0.66496000  0.87319000  1.0
  C  C7  1  0.58775000  0.73056000  0.79874000  1.0
  C  C8  1  0.68259000  0.79065000  0.76978000  1.0
  C  C9  1  0.63194000  0.83307000  0.69447000  1.0
  C  C10  1  0.68768000  0.89452000  0.62708000  1.0
  C  C11  1  0.40804000  0.12681000  0.66496000  1.0
  C  C12  1  0.41225000  0.20126000  0.73056000  1.0
  C  C13  1  0.31741000  0.23022000  0.79065000  1.0
  C  C14  1  0.36806000  0.30554000  0.83307000  1.0
  C  C15  1  0.31232000  0.37292000  0.89452000  1.0
  C  C16  1  0.40804000  0.87319000  0.33505000  1.0
  C  C17  1  0.41225000  0.79874000  0.26945000  1.0
  C  C18  1  0.31741000  0.76978000  0.20935000  1.0
  C  C19  1  0.36806000  0.69447000  0.16693000  1.0
  C  C20  1  0.31232000  0.62708000  0.10549000  1.0
  C  C21  1  0.90804000  0.16495000  0.62682000  1.0
  C  C22  1  0.91225000  0.23056000  0.70126000  1.0
  C  C23  1  0.81742000  0.29065000  0.73022000  1.0
  C  C24  1  0.86806000  0.33307000  0.80554000  1.0
  C  C25  1  0.81231000  0.39452000  0.87293000  1.0
  C  C26  1  0.90804000  0.83505000  0.37319000  1.0
  C  C27  1  0.91225000  0.76945000  0.29874000  1.0
  C  C28  1  0.81742000  0.70935000  0.26978000  1.0
  C  C29  1  0.86806000  0.66693000  0.19447000  1.0
  C  C30  1  0.81231000  0.60549000  0.12708000  1.0
  C  C31  1  0.09196000  0.37319000  0.16495000  1.0
  C  C32  1  0.08775000  0.29874000  0.23056000  1.0
  C  C33  1  0.18259000  0.26978000  0.29065000  1.0
  C  C34  1  0.13194000  0.19446000  0.33307000  1.0
  C  C35  1  0.18769000  0.12708000  0.39452000  1.0
  C  C36  1  0.09196000  0.62682000  0.83505000  1.0
  C  C37  1  0.08775000  0.70126000  0.76945000  1.0
  C  C38  1  0.18259000  0.73022000  0.70935000  1.0
  C  C39  1  0.13194000  0.80554000  0.66693000  1.0
  C  C40  1  0.18769000  0.87293000  0.60549000  1.0
  N  N1  1  0.51252000  0.20261000  0.31669000  1.0
  N  N2  1  0.48382000  0.26448000  0.25474000  1.0
  N  N3  1  0.51252000  0.79739000  0.68332000  1.0
  N  N4  1  0.48382000  0.73552000  0.74526000  1.0
  N  N5  1  0.48748000  0.31669000  0.79739000  1.0
  N  N6  1  0.51618000  0.25474000  0.73552000  1.0
  N  N7  1  0.48748000  0.68332000  0.20261000  1.0
  N  N8  1  0.51618000  0.74526000  0.26448000  1.0
  N  N9  1  0.98748000  0.29739000  0.81669000  1.0
  N  N10  1  0.01618000  0.23552000  0.75474000  1.0
  N  N11  1  0.98748000  0.70261000  0.18332000  1.0
  N  N12  1  0.01618000  0.76448000  0.24526000  1.0
  N  N13  1  0.01252000  0.18332000  0.29739000  1.0
  N  N14  1  0.98382000  0.24526000  0.23552000  1.0
  N  N15  1  0.01252000  0.81669000  0.70261000  1.0
  N  N16  1  0.98382000  0.75474000  0.76448000  1.0
  O  O1  1  0.50061000  0.39071000  0.11777000  1.0
  O  O2  1  0.68624000  0.33668000  0.07317000  1.0
  O  O3  1  0.61800000  0.08633000  0.44145000  1.0
  O  O4  1  0.80086000  0.07776000  0.36336000  1.0
  O  O5  1  0.50061000  0.60929000  0.88223000  1.0
  O  O6  1  0.68624000  0.66333000  0.92683000  1.0
  O  O7  1  0.61800000  0.91367000  0.55856000  1.0
  O  O8  1  0.80086000  0.92224000  0.63665000  1.0
  O  O9  1  0.49939000  0.11777000  0.60929000  1.0
  O  O10  1  0.31377000  0.07317000  0.66333000  1.0
  O  O11  1  0.38200000  0.44145000  0.91367000  1.0
  O  O12  1  0.19914000  0.36336000  0.92224000  1.0
  O  O13  1  0.49939000  0.88223000  0.39071000  1.0
  O  O14  1  0.31377000  0.92683000  0.33668000  1.0
  O  O15  1  0.38200000  0.55856000  0.08633000  1.0
  O  O16  1  0.19914000  0.63665000  0.07776000  1.0
  O  O17  1  0.99939000  0.10929000  0.61777000  1.0
  O  O18  1  0.81376000  0.16333000  0.57317000  1.0
  O  O19  1  0.88200000  0.41367000  0.94145000  1.0
  O  O20  1  0.69915000  0.42224000  0.86336000  1.0
  O  O21  1  0.99939000  0.89071000  0.38223000  1.0
  O  O22  1  0.81376000  0.83668000  0.42683000  1.0
  O  O23  1  0.88200000  0.58633000  0.05855000  1.0
  O  O24  1  0.69915000  0.57777000  0.13664000  1.0
  O  O25  1  0.00061000  0.38223000  0.10929000  1.0
  O  O26  1  0.18624000  0.42683000  0.16333000  1.0
  O  O27  1  0.11800000  0.05855000  0.41367000  1.0
  O  O28  1  0.30085000  0.13664000  0.42224000  1.0
  O  O29  1  0.00061000  0.61777000  0.89071000  1.0
  O  O30  1  0.18624000  0.57317000  0.83668000  1.0
  O  O31  1  0.11800000  0.94145000  0.58633000  1.0
  O  O32  1  0.30085000  0.86336000  0.57777000  1.0
