# generated using pymatgen
data_H40C45(N4O)2
_symmetry_space_group_name_H-M   'P 1'
_cell_length_a   31.08440000
_cell_length_b   31.08440000
_cell_length_c   50.75810000
_cell_angle_alpha   90.00000000
_cell_angle_beta   90.00000000
_cell_angle_gamma   120.00000000
_symmetry_Int_Tables_number   1
_chemical_formula_structural   H40C45(N4O)2
_chemical_formula_sum   'H160 C180 N32 O8'
_cell_volume   42473.78521425
_cell_formula_units_Z   4
loop_
 _symmetry_equiv_pos_site_id
 _symmetry_equiv_pos_as_xyz
  1  'x, y, z'
loop_
 _atom_site_type_symbol
 _atom_site_label
 _atom_site_symmetry_multiplicity
 _atom_site_fract_x
 _atom_site_fract_y
 _atom_site_fract_z
 _atom_site_occupancy
  H  2  1  0.84748700  0.39546100  0.98340600  1
  H  4  1  0.84418300  0.43072000  0.47976800  1
  H  10  1  0.98174300  0.52776700  0.91311800  1
  H  11  1  0.92090500  0.47626800  0.91494100  1
  H  12  1  0.96268700  0.47658200  0.89164300  1
  H  14  1  0.95732100  0.38730000  0.94578500  1
  H  15  1  0.94713300  0.39038100  0.91172500  1
  H  16  1  0.90630400  0.39264300  0.93478600  1
  H  23  1  0.90832200  0.47304200  0.42265400  1
  H  24  1  0.93446200  0.52695700  0.40289300  1
  H  25  1  0.91832500  0.53001000  0.43588500  1
  H  26  1  0.97204900  0.45744800  0.52854200  1
  H  33  1  0.72033500  0.30401500  0.92162000  1
  H  34  1  0.80201200  0.33991200  0.93947300  1
  H  35  1  0.78941800  0.45986300  0.96876600  1
  H  40  1  0.82806900  0.40614700  0.55149400  1
  H  41  1  0.75016600  0.36549500  0.57314200  1
  H  42  1  0.75505300  0.37988500  0.47836500  1
  H  43  1  0.72159400  0.21851300  0.75000200  1
  H  44  1  0.73783500  0.27077900  0.72990700  1
  H  46  1  0.76488900  0.32853900  0.77130900  1
  H  47  1  0.75262100  0.27405300  0.78848300  1
  H  48  1  0.72652300  0.30936300  0.79953300  1
  H  58  1  0.63689700  0.34591500  0.97983400  1
  H  59  1  0.67024800  0.28185500  0.96866900  1
  H  60  1  0.63306600  0.26952800  0.84030000  1
  H  61  1  0.68711300  0.42258000  0.85025400  1
  H  62  1  0.68097000  0.41180900  0.89646900  1
  H  63  1  0.70849500  0.42447900  0.95084000  1
  H  65  1  0.67827000  0.39036100  0.80630600  1
  H  75  1  0.67734200  0.34043900  0.50008000  1
  H  76  1  0.63924400  0.17045300  0.55298000  1
  H  77  1  0.67619300  0.25562300  0.56460500  1
  H  78  1  0.69894600  0.42218400  0.62960000  1
  H  79  1  0.69798900  0.41067000  0.58337300  1
  H  80  1  0.68104200  0.41916200  0.52668400  1
  H  81  1  0.63451100  0.45776500  0.51575200  1
  H  83  1  0.66059300  0.38831100  0.67256400  1
  H  92  1  0.67728300  0.21847800  0.72828800  1
  H  94  1  0.63629400  0.23303500  0.79653700  1
  H  95  1  0.66085800  0.19563700  0.78659800  1
  H  98  1  0.62805900  0.25905300  0.88660300  1
  H  112  1  0.54435500  0.40136400  0.92729000  1
  H  113  1  0.58260700  0.36096800  0.90649100  1
  H  114  1  0.59742800  0.38478300  0.00071900  1
  H  115  1  0.62482500  0.20115000  0.98617200  1
  H  116  1  0.50744600  0.16907900  0.93405100  1
  H  117  1  0.55397800  0.25057100  0.91585100  1
  H  119  1  0.51515800  0.13285000  0.98991500  1
  H  120  1  0.55620400  0.43261200  0.99842600  1
  H  147  1  0.42126200  0.58708200  0.42729700  1
  H  148  1  0.38302800  0.62748400  0.40648500  1
  H  149  1  0.36824900  0.60377000  0.50072000  1
  H  150  1  0.32878900  0.64263000  0.47982500  1
  H  151  1  0.29564100  0.70674600  0.46868400  1
  H  152  1  0.34119500  0.78744900  0.48618200  1
  H  153  1  0.45835500  0.81940500  0.43391300  1
  H  154  1  0.41172800  0.73789100  0.41576600  1
  H  155  1  0.33763200  0.72946900  0.38657900  1
  H  156  1  0.33261500  0.71898000  0.34027900  1
  H  157  1  0.27848600  0.56591800  0.35024500  1
  H  158  1  0.28465800  0.57670700  0.39646100  1
  H  159  1  0.25711000  0.56410500  0.45083400  1
  H  160  1  0.24552500  0.68474300  0.42165100  1
  H  161  1  0.16387100  0.64896200  0.43950600  1
  H  162  1  0.17619500  0.52883300  0.46875700  1
  H  165  1  0.44951100  0.85583100  0.49042600  1
  H  166  1  0.40941100  0.55587700  0.49843700  1
  H  168  1  0.28736500  0.59813900  0.30629200  1
  H  170  1  0.11816600  0.59347600  0.48330000  1
  H  196  1  0.13767800  0.58246400  0.05146900  1
  H  197  1  0.21557600  0.62311500  0.07312500  1
  H  198  1  0.21071900  0.60874100  0.97834700  1
  H  199  1  0.28842300  0.64818200  0.00007100  1
  H  200  1  0.39144900  0.71914600  0.01576300  1
  H  201  1  0.42866500  0.80433900  0.00432400  1
  H  202  1  0.32658800  0.81818000  0.05299400  1
  H  203  1  0.28959300  0.73299700  0.06460800  1
  H  204  1  0.36228200  0.73158400  0.09376600  1
  H  205  1  0.36011600  0.72027100  0.13986700  1
  H  206  1  0.26674300  0.56637500  0.12958900  1
  H  207  1  0.26771000  0.57790300  0.08336400  1
  H  208  1  0.28469400  0.56941900  0.02669500  1
  H  209  1  0.41103800  0.68791100  0.06192300  1
  H  210  1  0.45721000  0.64779500  0.05195400  1
  H  211  1  0.33120100  0.53080100  0.01576300  1
  H  214  1  0.40842800  0.89343400  0.03830700  1
  H  215  1  0.12158100  0.55784600  0.97975100  1
  H  217  1  0.30511400  0.60023400  0.17255200  1
  H  219  1  0.44267100  0.55644200  0.04355700  1
  H  230  1  0.57430800  0.26943700  0.51576400  1
  H  231  1  0.53713600  0.18424900  0.50431200  1
  H  232  1  0.60347000  0.25697200  0.59376700  1
  H  233  1  0.60563000  0.26827800  0.63987400  1
  H  234  1  0.55471500  0.30066900  0.56192600  1
  H  235  1  0.50853000  0.34077000  0.55195700  1
  H  237  1  0.55747200  0.09517800  0.53827500  1
  H  239  1  0.52304100  0.43210500  0.54355800  1
  H  240  1  0.61573200  0.19908500  0.76689600  1
  H  242  1  0.62423100  0.37226100  0.71741300  1
  H  251  1  0.28844600  0.77007900  0.22828500  1
  H  252  1  0.24413600  0.77005200  0.24999500  1
  H  253  1  0.22788300  0.71778800  0.22989800  1
  H  255  1  0.34998200  0.78944500  0.26689300  1
  H  256  1  0.32940900  0.75548800  0.29653200  1
  H  257  1  0.30486300  0.79290400  0.28659400  1
  H  259  1  0.20080500  0.66001900  0.27129600  1
  H  260  1  0.21308800  0.71450900  0.28847400  1
  H  261  1  0.23916900  0.67918200  0.29952200  1
  H  263  1  0.34142400  0.61623900  0.21740400  1
  H  274  1  0.43218400  0.92696700  0.91665500  1
  H  275  1  0.40756200  0.95412400  0.89535300  1
  H  276  1  0.38016900  0.93187300  0.92648200  1
  H  278  1  0.52001600  0.00669700  0.91433000  1
  H  279  1  0.52505400  0.06570600  0.91695100  1
  H  280  1  0.49168900  0.02647200  0.89074300  1
  H  282  1  0.39099800  0.01803200  0.93813100  1
  H  283  1  0.41381100  0.03508000  0.90563300  1
  H  284  1  0.44830000  0.07250800  0.93222000  1
  H  286  1  0.48158100  0.97471800  0.02745300  1
  H  297  1  0.47158100  0.55205200  0.92342600  1
  H  298  1  0.52574800  0.57340000  0.90421400  1
  H  299  1  0.53004600  0.59606300  0.93656000  1
  H  301  1  0.44999000  0.46119400  0.91637700  1
  H  302  1  0.49543200  0.44381600  0.92111400  1
  H  303  1  0.50296200  0.48547300  0.89579500  1
  H  305  1  0.59451300  0.56869600  0.94904400  1
  H  306  1  0.59071500  0.55343100  0.91523900  1
  H  307  1  0.58357100  0.50962600  0.93907400  1
  H  309  1  0.44085800  0.47641200  0.03052300  1
  H  316  1  0.05742000  0.51531200  0.92264600  1
  H  317  1  0.03123900  0.46130400  0.90295600  1
  H  318  1  0.04737100  0.45838700  0.93596400  1
  H  319  1  0.99374700  0.53141600  0.02846600  1
  H  329  1  0.53346800  0.06171300  0.41663500  1
  H  330  1  0.55804500  0.03458500  0.39528300  1
  H  331  1  0.58552800  0.05683000  0.42639500  1
  H  333  1  0.44566400  0.98197700  0.41434600  1
  H  334  1  0.44063300  0.92297100  0.41695400  1
  H  335  1  0.47392000  0.96218700  0.39072400  1
  H  337  1  0.57475500  0.97065600  0.43801100  1
  H  338  1  0.55191800  0.95369200  0.40551100  1
  H  339  1  0.51746400  0.91618000  0.43207900  1
  H  341  1  0.48427300  0.01390700  0.52743500  1
  H  352  1  0.49416000  0.43653400  0.42343200  1
  H  353  1  0.43999900  0.41517400  0.40421300  1
  H  354  1  0.43570000  0.39249800  0.43655700  1
  H  356  1  0.51571400  0.52738100  0.41639800  1
  H  357  1  0.47025300  0.54473100  0.42113700  1
  H  358  1  0.46275000  0.50309900  0.39581100  1
  H  360  1  0.37119100  0.41981000  0.44903600  1
  H  361  1  0.37500200  0.43509600  0.41523400  1
  H  362  1  0.38210800  0.47887600  0.43907500  1
  H  364  1  0.52477900  0.51209000  0.53054800  1
  H  372  1  0.98404700  0.46062000  0.41321100  1
  H  373  1  0.04486600  0.51216000  0.41499600  1
  H  374  1  0.00306400  0.51170300  0.39166100  1
  H  376  1  0.00835800  0.60119500  0.44565700  1
  H  377  1  0.01853400  0.59796800  0.41160900  1
  H  378  1  0.05939700  0.59585200  0.43469900  1
  C  1  1  0.84746600  0.41997900  0.97079900  1
  C  3  1  0.84578200  0.42393400  0.49880700  1
  C  5  1  0.97896400  0.48146600  0.95977400  1
  C  6  1  0.93601800  0.47468700  0.97366300  1
  C  7  1  0.94372300  0.49428200  0.99960400  1
  C  8  1  0.97865700  0.46262300  0.93211100  1
  C  9  1  0.95974300  0.48730500  0.91177100  1
  C  13  1  0.94523100  0.40471300  0.93108400  1
  C  20  1  0.93476700  0.46369900  0.49746900  1
  C  22  1  0.93372400  0.51318000  0.42279100  1
  C  28  1  0.80421900  0.40364900  0.95595400  1
  C  29  1  0.78301300  0.35874700  0.94151100  1
  C  30  1  0.73440700  0.33742200  0.93108300  1
  C  31  1  0.72698000  0.40539700  0.94820000  1
  C  32  1  0.77575000  0.42735000  0.95840200  1
  C  36  1  0.74990300  0.36902500  0.55317700  1
  C  37  1  0.79658300  0.39265500  0.54028400  1
  C  38  1  0.80038100  0.39848500  0.51256200  1
  C  39  1  0.75495300  0.37757100  0.49849600  1
  C  45  1  0.73630400  0.29622100  0.78188300  1
  C  49  1  0.70299100  0.35774800  0.93593200  1
  C  50  1  0.64750200  0.32919500  0.92775200  1
  C  51  1  0.65075700  0.33360900  0.89734200  1
  C  52  1  0.67004100  0.38090600  0.88507600  1
  C  53  1  0.67374000  0.38738300  0.85746600  1
  C  54  1  0.65961600  0.34700400  0.83992200  1
  C  55  1  0.64267700  0.29999400  0.85181500  1
  C  56  1  0.63901200  0.29375500  0.87955600  1
  C  57  1  0.63755800  0.25819200  0.95955700  1
  C  64  1  0.66386000  0.35541900  0.81242400  1
  C  66  1  0.64407200  0.40004800  0.53103600  1
  C  67  1  0.65203800  0.32695900  0.55234300  1
  C  68  1  0.65354700  0.33202300  0.58278800  1
  C  69  1  0.67921400  0.37971500  0.59488200  1
  C  70  1  0.67986400  0.38666100  0.62243300  1
  C  71  1  0.65426900  0.34616600  0.63997100  1
  C  72  1  0.70407700  0.35077700  0.53940700  1
  C  73  1  0.70859400  0.35388600  0.51146700  1
  C  74  1  0.64680300  0.24151200  0.55183500  1
  C  82  1  0.65165600  0.35410300  0.66711300  1
  C  84  1  0.67099900  0.29751300  0.75240800  1
  C  85  1  0.65409100  0.32483700  0.76769400  1
  C  86  1  0.63664200  0.35234700  0.75333200  1
  C  88  1  0.65413000  0.32807000  0.71184900  1
  C  90  1  0.69025100  0.26502700  0.76369500  1
  C  91  1  0.70784000  0.24173500  0.74160200  1
  C  93  1  0.64818800  0.22057100  0.77942200  1
  C  99  1  0.62694500  0.29861900  0.62830900  1
  C  100  1  0.62777200  0.27225800  0.54303600  1
  C  101  1  0.61979400  0.27507500  0.93829600  1
  C  102  1  0.61744100  0.35139300  0.94034700  1
  C  103  1  0.58745400  0.36646500  0.92633200  1
  C  104  1  0.56384200  0.38999700  0.93875100  1
  C  105  1  0.56747000  0.39872900  0.96626500  1
  C  106  1  0.59391800  0.38035500  0.98069300  1
  C  107  1  0.61732300  0.35694300  0.96819300  1
  C  108  1  0.61018800  0.21002000  0.97039100  1
  C  109  1  0.56254900  0.17534500  0.96084300  1
  C  110  1  0.54298800  0.19172800  0.94053000  1
  C  111  1  0.57068300  0.24024400  0.92987200  1
  C  118  1  0.54750400  0.42473600  0.97950800  1
  C  121  1  0.53415100  0.13091000  0.97465700  1
  C  122  1  0.16151700  0.58513300  0.45595700  1
  C  123  1  0.18279900  0.63005200  0.44152500  1
  C  124  1  0.23136500  0.65127000  0.43105000  1
  C  125  1  0.26271300  0.63087300  0.43591800  1
  C  126  1  0.23866100  0.58321800  0.44817900  1
  C  127  1  0.18988800  0.56132500  0.45837400  1
  C  128  1  0.31820200  0.65934300  0.42773300  1
  C  129  1  0.31494600  0.65491700  0.39732600  1
  C  130  1  0.29560300  0.60760900  0.38506400  1
  C  131  1  0.29188700  0.60112000  0.35745400  1
  C  132  1  0.30603600  0.64150000  0.33990800  1
  C  133  1  0.32299500  0.68851500  0.35179600  1
  C  134  1  0.32666600  0.69476000  0.37953500  1
  C  135  1  0.34596500  0.71346700  0.43824900  1
  C  136  1  0.34821200  0.63709900  0.44033500  1
  C  137  1  0.37818400  0.62200200  0.42632800  1
  C  138  1  0.40179100  0.59847200  0.43875300  1
  C  139  1  0.39816800  0.58976200  0.46627000  1
  C  140  1  0.37171800  0.60814300  0.48069000  1
  C  141  1  0.34833000  0.63156400  0.46818300  1
  C  142  1  0.32832600  0.73037800  0.45955600  1
  C  143  1  0.35578000  0.77853800  0.47039400  1
  C  144  1  0.40337500  0.81318300  0.46078700  1
  C  145  1  0.42284400  0.79677200  0.44044600  1
  C  146  1  0.39508600  0.74824600  0.42980900  1
  C  163  1  0.41812300  0.56375200  0.47951700  1
  C  164  1  0.11826700  0.56886300  0.47079000  1
  C  167  1  0.30179200  0.63308200  0.31241100  1
  C  169  1  0.43186100  0.85766100  0.47451700  1
  C  171  1  0.39973000  0.58623100  0.03164800  1
  C  172  1  0.42115300  0.63166400  0.04563000  1
  C  173  1  0.39356600  0.65535200  0.05156200  1
  C  174  1  0.34298800  0.63550900  0.04400100  1
  C  175  1  0.32166400  0.58852900  0.03104300  1
  C  176  1  0.34915500  0.56493700  0.02464800  1
  C  177  1  0.31370800  0.66163000  0.05233600  1
  C  178  1  0.31217900  0.65654500  0.08277900  1
  C  179  1  0.28649500  0.60885400  0.09487500  1
  C  180  1  0.28583300  0.60189800  0.12242400  1
  C  181  1  0.31143600  0.64238700  0.13996400  1
  C  182  1  0.33875800  0.68993800  0.12830600  1
  C  183  1  0.33952200  0.69652800  0.10067100  1
  C  184  1  0.33798500  0.71633700  0.04303100  1
  C  185  1  0.26167500  0.63782400  0.03939400  1
  C  186  1  0.21584300  0.61958500  0.05316000  1
  C  187  1  0.16917000  0.59597300  0.04026100  1
  C  188  1  0.16538000  0.59013700  0.01254200  1
  C  189  1  0.21081200  0.61104000  0.99847900  1
  C  190  1  0.25716600  0.63469000  0.01145600  1
  C  191  1  0.37745500  0.73918900  0.02439400  1
  C  192  1  0.39909900  0.78977300  0.01700400  1
  C  193  1  0.38189800  0.82059600  0.02752200  1
  C  194  1  0.34083200  0.79776500  0.04488900  1
  C  195  1  0.31897800  0.74710000  0.05183400  1
  C  212  1  0.11998300  0.56468800  0.99878200  1
  C  213  1  0.42597100  0.56091700  0.02793600  1
  C  216  1  0.31405100  0.63444400  0.16710400  1
  C  218  1  0.40580200  0.87210000  0.02307400  1
  C  220  1  0.56599800  0.40233500  0.53164500  1
  C  221  1  0.54458300  0.35690100  0.54563100  1
  C  222  1  0.57217900  0.33322200  0.55156500  1
  C  223  1  0.62276000  0.35307900  0.54400000  1
  C  224  1  0.61657300  0.42363400  0.52464500  1
  C  225  1  0.62620800  0.29203200  0.60067400  1
  C  226  1  0.58830800  0.24939900  0.52439700  1
  C  227  1  0.56666400  0.19881400  0.51701700  1
  C  228  1  0.58390800  0.16801500  0.52751800  1
  C  229  1  0.62497400  0.19085300  0.54488400  1
  C  236  1  0.53975400  0.42764800  0.52793900  1
  C  238  1  0.56004100  0.11651800  0.52305500  1
  C  243  1  0.29469600  0.69102000  0.25239900  1
  C  244  1  0.31158400  0.66368300  0.26768500  1
  C  245  1  0.32901500  0.63615700  0.25332300  1
  C  247  1  0.31157500  0.66047500  0.21184000  1
  C  249  1  0.27545200  0.72351800  0.26368800  1
  C  250  1  0.25788000  0.74682300  0.24159500  1
  C  254  1  0.31752500  0.76796500  0.27941700  1
  C  258  1  0.22939800  0.69233100  0.28187400  1
  C  266  1  0.46270700  0.99907200  0.95729800  1
  C  267  1  0.49361900  0.04031500  0.97390900  1
  C  268  1  0.49937900  0.02879800  0.00032700  1
  C  270  1  0.44598800  0.94171100  0.99354800  1
  C  272  1  0.45133200  0.00299100  0.92855100  1
  C  273  1  0.41558000  0.95073800  0.91596700  1
  C  277  1  0.50006000  0.02702700  0.91169000  1
  C  281  1  0.42456100  0.03413600  0.92602600  1
  C  289  1  0.49751900  0.50458100  0.96305000  1
  C  290  1  0.50046600  0.46782500  0.97866400  1
  C  291  1  0.47837100  0.45873200  0.00409400  1
  C  293  1  0.45424500  0.51993000  0.99840200  1
  C  295  1  0.51793600  0.51963400  0.93527600  1
  C  296  1  0.51089500  0.56298800  0.92416700  1
  C  300  1  0.48989300  0.47471500  0.91600900  1
  C  304  1  0.57512600  0.53890400  0.93468200  1
  C  313  1  0.03100200  0.52499400  0.99743300  1
  C  315  1  0.03199400  0.47517900  0.92283200  1
  C  321  1  0.50309300  0.98959900  0.45726100  1
  C  322  1  0.47222400  0.94835100  0.47387700  1
  C  323  1  0.46648100  0.95984100  0.50030000  1
  C  325  1  0.51984100  0.04693100  0.49352700  1
  C  327  1  0.51439200  0.98569400  0.42849900  1
  C  328  1  0.55008500  0.03795800  0.41591000  1
  C  332  1  0.46561200  0.96164700  0.41168000  1
  C  336  1  0.54118100  0.95457400  0.42591400  1
  C  344  1  0.46816700  0.48395000  0.46306100  1
  C  345  1  0.46516200  0.52066300  0.47868800  1
  C  346  1  0.48724800  0.52975100  0.50412000  1
  C  348  1  0.51148700  0.46864500  0.49840300  1
  C  350  1  0.44776900  0.46890900  0.43528400  1
  C  351  1  0.45484500  0.42558100  0.42416900  1
  C  355  1  0.47580700  0.51384700  0.41602600  1
  C  359  1  0.39057600  0.44961500  0.43467900  1
  C  367  1  0.98679000  0.50712300  0.45978900  1
  C  368  1  0.02975600  0.51402200  0.47370600  1
  C  369  1  0.02206200  0.49451200  0.49966600  1
  C  370  1  0.98707500  0.52582500  0.43209200  1
  C  371  1  0.00601800  0.50107900  0.41181200  1
  C  375  1  0.02045900  0.58373400  0.43099300  1
  N  18  1  0.89090200  0.45391300  0.96216900  1
  N  19  1  0.97582100  0.47062600  0.51073600  1
  N  21  1  0.94215400  0.48244600  0.47263200  1
  N  27  1  0.88939400  0.43917000  0.50870300  1
  N  87  1  0.63723200  0.35349400  0.72639600  1
  N  89  1  0.66987800  0.30104700  0.72553700  1
  N  96  1  0.65180100  0.32197800  0.79433000  1
  N  97  1  0.65496400  0.32604800  0.68532900  1
  N  246  1  0.32843500  0.63502000  0.22638700  1
  N  248  1  0.29582500  0.68749800  0.22552800  1
  N  264  1  0.31386900  0.66653300  0.29431900  1
  N  265  1  0.31073200  0.66248900  0.18532000  1
  N  269  1  0.47578500  0.98094300  0.00936400  1
  N  271  1  0.44112300  0.95258900  0.96824100  1
  N  287  1  0.51841000  0.08710500  0.96421000  1
  N  288  1  0.42282400  0.89343100  0.00059700  1
  N  292  1  0.45652800  0.48458700  0.01323100  1
  N  294  1  0.47429200  0.52789600  0.97393900  1
  N  310  1  0.52098600  0.44161700  0.96898100  1
  N  311  1  0.43084100  0.54472300  0.00534300  1
  N  312  1  0.98996400  0.51816800  0.01067600  1
  N  314  1  0.02360100  0.50614400  0.97261800  1
  N  320  1  0.07637200  0.54951700  0.00866600  1
  N  324  1  0.49006000  0.00769200  0.50934100  1
  N  326  1  0.52467300  0.03607500  0.46821100  1
  N  342  1  0.44759500  0.90156400  0.46417600  1
  N  343  1  0.54297900  0.09520300  0.50058000  1
  N  347  1  0.50910500  0.50390800  0.51325600  1
  N  349  1  0.49143500  0.46067000  0.47394200  1
  N  365  1  0.44464800  0.54687200  0.46900100  1
  N  366  1  0.53488700  0.44385100  0.50534800  1
  N  380  1  0.07486700  0.53475000  0.46221200  1
  O  17  1  0.90528300  0.49102500  0.01379100  1
  O  241  1  0.61706400  0.37688100  0.76607900  1
  O  262  1  0.34857200  0.61160000  0.26607000  1
  O  285  1  0.53013700  0.06500500  0.01715800  1
  O  308  1  0.47615300  0.42227900  0.01965800  1
  O  340  1  0.43571200  0.92363400  0.51712900  1
  O  363  1  0.48942000  0.56617100  0.51969200  1
  O  379  1  0.06052600  0.49788300  0.51387500  1
