# generated using pymatgen
data_H9C15N2O3
_symmetry_space_group_name_H-M   'P 1'
_cell_length_a   10.04080000
_cell_length_b   44.30965000
_cell_length_c   44.30960000
_cell_angle_alpha   119.99988802
_cell_angle_beta   90.00000000
_cell_angle_gamma   90.00000000
_symmetry_Int_Tables_number   1
_chemical_formula_structural   H9C15N2O3
_chemical_formula_sum   'H54 C90 N12 O18'
_cell_volume   17072.43969788
_cell_formula_units_Z   6
loop_
 _symmetry_equiv_pos_site_id
 _symmetry_equiv_pos_as_xyz
  1  'x, y, z'
loop_
 _atom_site_type_symbol
 _atom_site_label
 _atom_site_symmetry_multiplicity
 _atom_site_fract_x
 _atom_site_fract_y
 _atom_site_fract_z
 _atom_site_occupancy
  C  1  1  0.04145700  0.70674400  0.34973400  1
  C  2  1  0.04169400  0.69094000  0.37066200  1
  C  3  1  0.04115800  0.65433400  0.35598000  1
  C  4  1  0.04128700  0.63340400  0.31925000  1
  C  5  1  0.04119200  0.64807700  0.29731700  1
  C  6  1  0.04165000  0.68481100  0.31312400  1
  C  7  1  0.03696500  0.63901200  0.37766800  1
  C  8  1  0.11680000  0.65191200  0.40789500  1
  C  9  1  0.11107700  0.63703900  0.42941200  1
  C  10  1  0.02583100  0.60853800  0.42173600  1
  C  11  1  0.94759000  0.59545700  0.39108000  1
  C  12  1  0.95211300  0.61052500  0.36972400  1
  C  13  1  0.03741400  0.74376400  0.36506000  1
  C  14  1  0.95324800  0.76435900  0.39369700  1
  C  15  1  0.94881000  0.80078200  0.40875100  1
  C  16  1  0.02642800  0.81830100  0.39549800  1
  C  17  1  0.11099700  0.79744300  0.36685300  1
  C  18  1  0.11667000  0.76105500  0.35200400  1
  C  19  1  0.03710800  0.62637500  0.26029700  1
  C  20  1  0.95319700  0.63445600  0.23968300  1
  C  21  1  0.94887700  0.61309700  0.20325900  1
  C  22  1  0.02626700  0.58228300  0.18575900  1
  C  23  1  0.11058300  0.57445600  0.20663200  1
  C  24  1  0.11616300  0.59599000  0.24302000  1
  C  40  1  0.02498800  0.59337200  0.44376500  1
  C  41  1  0.02560100  0.85548800  0.41066400  1
  C  42  1  0.02556700  0.56027900  0.14857200  1
  C  46  1  0.04917000  0.29952000  0.65278200  1
  C  47  1  0.04953800  0.31475100  0.63135000  1
  C  48  1  0.04907400  0.35128200  0.64574300  1
  C  49  1  0.04952400  0.37271100  0.68240400  1
  C  50  1  0.04919400  0.35832100  0.70454400  1
  C  51  1  0.04964200  0.32165900  0.68931100  1
  C  52  1  0.04123700  0.36613900  0.62383500  1
  C  53  1  0.12807800  0.35545200  0.59512100  1
  C  54  1  0.12024000  0.37059900  0.57383600  1
  C  55  1  0.02603400  0.39704000  0.58084600  1
  C  56  1  0.93690200  0.40698900  0.60897900  1
  C  57  1  0.94438400  0.39179600  0.63014700  1
  C  58  1  0.04137600  0.26275300  0.63792600  1
  C  59  1  0.94450400  0.24340000  0.61227700  1
  C  60  1  0.93700900  0.20704100  0.59710500  1
  C  61  1  0.02617400  0.18886700  0.60706000  1
  C  62  1  0.12041000  0.20830600  0.63348800  1
  C  63  1  0.12825700  0.24473800  0.64861600  1
  C  64  1  0.04143100  0.38022900  0.74130900  1
  C  65  1  0.94460700  0.37392500  0.76066600  1
  C  66  1  0.93710900  0.39511700  0.79702500  1
  C  67  1  0.02621400  0.42326100  0.81519600  1
  C  68  1  0.12048400  0.43023600  0.79575400  1
  C  69  1  0.12829300  0.40893900  0.75932200  1
  C  85  1  0.02002400  0.41323900  0.56016500  1
  C  86  1  0.02013400  0.15198700  0.59089000  1
  C  87  1  0.02012500  0.44398300  0.85207200  1
  C  91  1  0.93932900  0.54342400  0.09076700  1
  C  92  1  0.05890100  0.53513400  0.07145400  1
  C  94  1  0.94303000  0.50334000  0.01741200  1
  C  95  1  0.81823800  0.51220800  0.03491700  1
  C  96  1  0.81890400  0.53240700  0.07170800  1
  C  98  1  0.95893500  0.48282400  0.98095500  1
  C  99  1  0.03825400  0.45214500  0.96448400  1
  C  100  1  0.04943900  0.43463600  0.92781100  1
  C  101  1  0.98752800  0.44767200  0.90802700  1
  C  102  1  0.90917200  0.47802400  0.92600800  1
  C  107  1  0.10077300  0.43761100  0.98222000  1
  C  108  1  0.69680400  0.50121900  0.01813700  1
  C  119  1  0.93993100  0.55229300  0.46055700  1
  C  120  1  0.05962300  0.54162300  0.46917400  1
  C  122  1  0.94371600  0.51932000  0.50091900  1
  C  123  1  0.81890500  0.52760600  0.49172400  1
  C  124  1  0.81950400  0.54406100  0.47139600  1
  C  126  1  0.95956200  0.50335900  0.52142300  1
  C  127  1  0.03885600  0.51752500  0.55210500  1
  C  128  1  0.04987100  0.49833500  0.56959400  1
  C  129  1  0.98760600  0.46556100  0.55656700  1
  C  130  1  0.90920300  0.45324300  0.52623100  1
  C  135  1  0.10176500  0.54977400  0.56664500  1
  C  136  1  0.69768900  0.52168600  0.50264400  1
  C  147  1  0.93947400  0.91330000  0.45162600  1
  C  148  1  0.05904900  0.93261700  0.46259100  1
  C  150  1  0.94311400  0.98665300  0.48486500  1
  C  151  1  0.81833300  0.96914300  0.47628100  1
  C  152  1  0.81902500  0.93235300  0.45970300  1
  C  154  1  0.95897900  0.02311500  0.50081300  1
  C  155  1  0.03826400  0.03959800  0.48661300  1
  C  156  1  0.04942800  0.07627300  0.50578600  1
  C  157  1  0.98753700  0.09604500  0.53861200  1
  C  158  1  0.90921200  0.07805000  0.55097400  1
  C  163  1  0.10076900  0.02187700  0.45434000  1
  C  164  1  0.69686500  0.98591600  0.48210100  1
  H  25  1  0.88841100  0.81406200  0.42989500  1
  H  26  1  0.89275400  0.75299400  0.40379200  1
  H  27  1  0.17089800  0.80844700  0.35629300  1
  H  28  1  0.18119700  0.74735000  0.33177300  1
  H  29  1  0.89290400  0.65595600  0.25103300  1
  H  30  1  0.88873000  0.62099100  0.18995600  1
  H  31  1  0.18058000  0.58944600  0.25673200  1
  H  32  1  0.17034000  0.55286600  0.19563700  1
  H  33  1  0.89118600  0.60055800  0.34835100  1
  H  34  1  0.88644000  0.57446900  0.38331200  1
  H  35  1  0.17152100  0.64746800  0.45087000  1
  H  36  1  0.18179900  0.67203300  0.41433700  1
  H  37  1  0.04072000  0.70645400  0.39721700  1
  H  38  1  0.04063900  0.69584500  0.29760600  1
  H  39  1  0.03997700  0.60685100  0.30822600  1
  H  70  1  0.86448000  0.19404200  0.57890400  1
  H  71  1  0.87740800  0.25564200  0.60459900  1
  H  72  1  0.18712700  0.19604100  0.64121600  1
  H  73  1  0.20023900  0.25790000  0.66693300  1
  H  74  1  0.87752200  0.35400100  0.74842700  1
  H  75  1  0.86455900  0.38992000  0.81002600  1
  H  76  1  0.20017800  0.41411700  0.74615300  1
  H  77  1  0.18703700  0.45027300  0.80801200  1
  H  78  1  0.87731800  0.39947400  0.65007600  1
  H  79  1  0.86438600  0.42519800  0.61419500  1
  H  80  1  0.18692300  0.36287300  0.55383400  1
  H  81  1  0.20004900  0.33712800  0.58995300  1
  H  82  1  0.04707800  0.29896400  0.60480800  1
  H  83  1  0.04724400  0.31090300  0.70509700  1
  H  84  1  0.04712300  0.39925500  0.69316100  1
  H  97  1  0.73052600  0.53853900  0.08508700  1
  H  104  1  0.10472700  0.41222900  0.91515300  1
  H  105  1  0.85777800  0.48783100  0.91291900  1
  H  106  1  0.14887700  0.54387300  0.08343200  1
  H  111  1  0.95305000  0.42629500  0.00085700  1
  H  114  1  0.60980300  0.45982800  0.98616400  1
  H  116  1  0.99638100  0.40425000  0.86139200  1
  H  118  1  0.86023700  0.57793700  0.13656400  1
  H  125  1  0.73106900  0.55105800  0.46502900  1
  H  132  1  0.10520100  0.50804700  0.59199200  1
  H  133  1  0.85772300  0.43035700  0.51640600  1
  H  134  1  0.14966000  0.54504200  0.46059200  1
  H  139  1  0.95363100  0.57967300  0.57830500  1
  H  142  1  0.60776700  0.53065700  0.54358200  1
  H  144  1  0.99647600  0.46227800  0.59995000  1
  H  146  1  0.86170000  0.56292200  0.42552100  1
  H  153  1  0.73065500  0.91897100  0.45249700  1
  H  160  1  0.10469300  0.08893900  0.49604100  1
  H  161  1  0.85783600  0.09113300  0.57387400  1
  H  162  1  0.14904700  0.92064000  0.45931800  1
  H  167  1  0.95303800  0.00322700  0.42439100  1
  H  170  1  0.60969300  0.01788400  0.47270400  1
  H  172  1  0.99633700  0.14269000  0.54184400  1
  H  174  1  0.86061600  0.86752100  0.44046500  1
  N  93  1  0.05652400  0.51557300  0.03633500  1
  N  103  1  0.89819700  0.49421700  0.96110800  1
  N  115  1  0.99619700  0.42962300  0.87249500  1
  N  117  1  0.93722700  0.56290000  0.12651500  1
  N  121  1  0.05725600  0.52618000  0.48884100  1
  N  131  1  0.89852100  0.47215600  0.51003900  1
  N  143  1  0.99624200  0.44803400  0.57457200  1
  N  145  1  0.93781200  0.56836800  0.44090400  1
  N  149  1  0.05663500  0.96773400  0.47814000  1
  N  159  1  0.89826100  0.04295100  0.53205800  1
  N  171  1  0.99619200  0.13157800  0.55610600  1
  N  173  1  0.93740700  0.87755500  0.43538400  1
  O  43  1  0.11371300  0.53350800  0.13453900  1
  O  44  1  0.11335300  0.86952000  0.39783400  1
  O  45  1  0.11139600  0.60655500  0.47093200  1
  O  88  1  0.05219100  0.47818600  0.86688400  1
  O  89  1  0.05224100  0.13716400  0.61026800  1
  O  90  1  0.05202400  0.39387800  0.52595600  1
  O  109  1  0.21821000  0.44486300  0.98942000  1
  O  110  1  0.03961400  0.43067600  0.00221300  1
  O  112  1  0.64281400  0.52079300  0.00983500  1
  O  113  1  0.67889800  0.46944200  0.00021100  1
  O  137  1  0.21902100  0.54945600  0.55913600  1
  O  138  1  0.04005700  0.57665800  0.57370300  1
  O  140  1  0.63906400  0.49477400  0.48248100  1
  O  141  1  0.67796000  0.53512600  0.53433300  1
  O  165  1  0.21822500  0.01468700  0.45438400  1
  O  166  1  0.03961300  0.00187700  0.42741100  1
  O  168  1  0.64298200  0.99421100  0.50998800  1
  O  169  1  0.67881700  0.00384500  0.46825500  1
