# generated using pymatgen
data_H4Pb(C2O)4
_symmetry_space_group_name_H-M   'P 1'
_cell_length_a   6.81243000
_cell_length_b   11.56307000
_cell_length_c   16.86842000
_cell_angle_alpha   92.46253000
_cell_angle_beta   89.98369000
_cell_angle_gamma   89.96237000
_symmetry_Int_Tables_number   1
_chemical_formula_structural   H4Pb(C2O)4
_chemical_formula_sum   'H16 Pb4 C32 O16'
_cell_volume   1327.54196010
_cell_formula_units_Z   4
loop_
 _symmetry_equiv_pos_site_id
 _symmetry_equiv_pos_as_xyz
  1  'x, y, z'
loop_
 _atom_site_type_symbol
 _atom_site_label
 _atom_site_symmetry_multiplicity
 _atom_site_fract_x
 _atom_site_fract_y
 _atom_site_fract_z
 _atom_site_occupancy
  H  H0  1  0.28522000  0.13199000  0.02258000  1
  H  H1  1  0.72842000  0.00149000  0.09857000  1
  H  H2  1  0.33761000  0.39143000  0.10607000  1
  H  H3  1  0.85739000  0.54409000  0.00949000  1
  H  H4  1  0.78656000  0.36767000  0.48046000  1
  H  H5  1  0.23004000  0.49431000  0.40109000  1
  H  H6  1  0.84157000  0.10807000  0.39284000  1
  H  H7  1  0.35750000  0.95420000  0.49240000  1
  H  H8  1  0.71480000  0.86801000  0.97742000  1
  H  H9  1  0.27159000  0.99851000  0.90143000  1
  H  H10  1  0.66240000  0.60857000  0.89393000  1
  H  H11  1  0.14263000  0.45591000  0.99051000  1
  H  H12  1  0.21346000  0.63233000  0.51954000  1
  H  H13  1  0.76998000  0.50569000  0.59891000  1
  H  H14  1  0.15845000  0.89193000  0.60716000  1
  H  H15  1  0.64252000  0.04580000  0.50760000  1
  Pb  Pb16  1  0.96267000  0.34075000  0.25818000  1
  Pb  Pb17  1  0.46367000  0.15756000  0.24154000  1
  Pb  Pb18  1  0.03735000  0.65925000  0.74182000  1
  Pb  Pb19  1  0.53635000  0.84245000  0.75846000  1
  C  C20  1  0.01362000  0.15648000  0.13806000  1
  C  C21  1  0.00835000  0.07359000  0.06793000  1
  C  C22  1  0.16220000  0.07327000  0.01246000  1
  C  C23  1  0.84629000  0.00020000  0.05509000  1
  C  C24  1  0.72648000  0.42349000  0.13248000  1
  C  C25  1  0.60931000  0.46336000  0.06432000  1
  C  C26  1  0.40715000  0.43890000  0.05948000  1
  C  C27  1  0.70119000  0.52515000  0.00485000  1
  C  C28  1  0.51655000  0.34128000  0.36285000  1
  C  C29  1  0.50991000  0.42413000  0.43311000  1
  C  C30  1  0.66283000  0.42642000  0.48898000  1
  C  C31  1  0.34732000  0.49763000  0.44476000  1
  C  C32  1  0.22942000  0.07409000  0.36757000  1
  C  C33  1  0.11125000  0.03523000  0.43578000  1
  C  C34  1  0.90920000  0.06067000  0.43990000  1
  C  C35  1  0.20128000  0.97390000  0.49594000  1
  C  C36  1  0.98639000  0.84352000  0.86194000  1
  C  C37  1  0.99166000  0.92641000  0.93207000  1
  C  C38  1  0.83781000  0.92673000  0.98754000  1
  C  C39  1  0.15372000  0.99981000  0.94491000  1
  C  C40  1  0.27354000  0.57651000  0.86752000  1
  C  C41  1  0.39071000  0.53664000  0.93568000  1
  C  C42  1  0.59286000  0.56110000  0.94052000  1
  C  C43  1  0.29882000  0.47486000  0.99515000  1
  C  C44  1  0.48347000  0.65872000  0.63715000  1
  C  C45  1  0.49010000  0.57587000  0.56689000  1
  C  C46  1  0.33719000  0.57358000  0.51102000  1
  C  C47  1  0.65269000  0.50237000  0.55524000  1
  C  C48  1  0.77060000  0.92591000  0.63243000  1
  C  C49  1  0.88877000  0.96477000  0.56422000  1
  C  C50  1  0.09082000  0.93933000  0.56010000  1
  C  C51  1  0.79874000  0.02610000  0.50406000  1
  O  O52  1  0.85617000  0.17517000  0.17793000  1
  O  O53  1  0.17131000  0.21292000  0.15456000  1
  O  O54  1  0.63831000  0.37853000  0.19107000  1
  O  O55  1  0.91355000  0.43516000  0.13149000  1
  O  O56  1  0.35984000  0.32405000  0.32232000  1
  O  O57  1  0.67451000  0.28483000  0.34628000  1
  O  O58  1  0.14193000  0.11933000  0.30885000  1
  O  O59  1  0.41630000  0.06165000  0.36845000  1
  O  O60  1  0.14385000  0.82483000  0.82207000  1
  O  O61  1  0.82870000  0.78708000  0.84544000  1
  O  O62  1  0.36171000  0.62147000  0.80893000  1
  O  O63  1  0.08646000  0.56484000  0.86851000  1
  O  O64  1  0.64018000  0.67595000  0.67768000  1
  O  O65  1  0.32551000  0.71517000  0.65372000  1
  O  O66  1  0.85809000  0.88067000  0.69115000  1
  O  O67  1  0.58371000  0.93835000  0.63155000  1
