# generated using pymatgen
data_H48C61N4
_symmetry_space_group_name_H-M   'P 1'
_cell_length_a   21.17940000
_cell_length_b   21.17940000
_cell_length_c   84.71750000
_cell_angle_alpha   90.00210000
_cell_angle_beta   89.99680000
_cell_angle_gamma   90.00000000
_symmetry_Int_Tables_number   1
_chemical_formula_structural   H48C61N4
_chemical_formula_sum   'H192 C244 N16'
_cell_volume   38001.47341272
_cell_formula_units_Z   4
loop_
 _symmetry_equiv_pos_site_id
 _symmetry_equiv_pos_as_xyz
  1  'x, y, z'
loop_
 _atom_site_type_symbol
 _atom_site_label
 _atom_site_symmetry_multiplicity
 _atom_site_fract_x
 _atom_site_fract_y
 _atom_site_fract_z
 _atom_site_occupancy
  C  1  1  0.13242900  0.94305000  0.87707400  1
  C  2  1  0.19423000  0.96641200  0.87660600  1
  C  3  1  0.19164700  0.03189300  0.87539100  1
  C  4  1  0.12827000  0.05044200  0.87505900  1
  C  5  1  0.11223100  0.11486600  0.87391400  1
  C  6  1  0.16025000  0.16151100  0.87315600  1
  C  7  1  0.22430200  0.14136000  0.87348700  1
  C  8  1  0.24025600  0.07694800  0.87461000  1
  C  9  1  0.24627000  0.92531000  0.87750600  1
  C  10  1  0.23542500  0.85994600  0.87898700  1
  C  11  1  0.17310000  0.83549200  0.87958600  1
  C  12  1  0.12138700  0.87771800  0.87865200  1
  C  13  1  0.03996400  0.99692800  0.88909700  1
  C  14  1  0.97788600  0.99164000  0.88358300  1
  C  15  1  0.97938600  0.98724200  0.86720600  1
  C  16  1  0.04240200  0.98922800  0.86229200  1
  C  17  1  0.93010000  0.98395400  0.85612800  1
  C  18  1  0.94500500  0.98371600  0.83992000  1
  C  19  1  0.00867200  0.98648400  0.83463200  1
  C  20  1  0.05741000  0.98868800  0.84609900  1
  C  21  1  0.05201900  0.00446500  0.90533200  1
  C  22  1  0.00107500  0.00646500  0.91614900  1
  C  23  1  0.93842800  0.00079800  0.91035700  1
  C  24  1  0.92654700  0.99342200  0.89410000  1
  C  37  1  0.08579000  0.99494800  0.87591600  1
  C  38  1  0.02439400  0.99064400  0.81872700  1
  C  39  1  0.01321100  0.01642500  0.93198100  1
  C  40  1  0.16232000  0.77174900  0.88171300  1
  C  41  1  0.14349500  0.22497300  0.87208100  1
  C  46  1  0.94563800  0.86775600  0.37731400  1
  C  47  1  0.96897200  0.80594200  0.37686700  1
  C  48  1  0.03445500  0.80848200  0.37565600  1
  C  49  1  0.05304400  0.87185000  0.37530200  1
  C  50  1  0.11746600  0.88783200  0.37409000  1
  C  51  1  0.16406800  0.83977600  0.37329500  1
  C  52  1  0.14387100  0.77574000  0.37365300  1
  C  53  1  0.07946100  0.75984000  0.37483600  1
  C  54  1  0.92784200  0.75392000  0.37775000  1
  C  55  1  0.86246200  0.76480400  0.37917900  1
  C  56  1  0.83802400  0.82713800  0.37975300  1
  C  57  1  0.88029000  0.87882800  0.37884300  1
  C  58  1  0.99952300  0.96058400  0.38921500  1
  C  59  1  0.99431500  0.02247800  0.38356200  1
  C  60  1  0.98985900  0.02048800  0.36719500  1
  C  61  1  0.99182900  0.95733200  0.36240200  1
  C  62  1  0.98643200  0.06945500  0.35603200  1
  C  63  1  0.98608200  0.05408400  0.33985400  1
  C  64  1  0.98884400  0.99026000  0.33468300  1
  C  65  1  0.99112400  0.94185200  0.34623700  1
  C  66  1  0.00667900  0.94913200  0.40549500  1
  C  67  1  0.00821800  0.00049500  0.41619700  1
  C  68  1  0.00271800  0.06291800  0.41024600  1
  C  69  1  0.99579000  0.07420400  0.39395600  1
  C  82  1  0.99755700  0.91436400  0.37611200  1
  C  83  1  0.99300800  0.97412500  0.31880800  1
  C  84  1  0.01726600  0.98918000  0.43210400  1
  C  85  1  0.77424500  0.83793600  0.38181900  1
  C  86  1  0.22752100  0.85646600  0.37215000  1
  C  91  1  0.86565500  0.94440800  0.12565400  1
  C  92  1  0.80376900  0.96743000  0.12637900  1
  C  93  1  0.80600200  0.03304700  0.12684800  1
  C  94  1  0.86924300  0.05197900  0.12631300  1
  C  95  1  0.88505400  0.11655500  0.12679600  1
  C  96  1  0.83690400  0.16294100  0.12779300  1
  C  97  1  0.77296100  0.14249700  0.12825500  1
  C  98  1  0.75724600  0.07790400  0.12775700  1
  C  99  1  0.75193400  0.92595000  0.12617500  1
  C  100  1  0.76308200  0.86054200  0.12501200  1
  C  101  1  0.82549700  0.83643400  0.12408500  1
  C  102  1  0.87699700  0.87903800  0.12445100  1
  C  103  1  0.95579300  0.99605400  0.11211000  1
  C  104  1  0.01878000  0.99413400  0.11707400  1
  C  105  1  0.01985400  0.99369800  0.13349800  1
  C  106  1  0.95752900  0.99451000  0.13895400  1
  C  107  1  0.07064600  0.99185800  0.14417100  1
  C  108  1  0.05790800  0.99086800  0.16050100  1
  C  109  1  0.99490800  0.99163400  0.16629800  1
  C  110  1  0.94466900  0.99353500  0.15524900  1
  C  111  1  0.94084700  0.99420200  0.09593100  1
  C  112  1  0.98966500  0.98997000  0.08453400  1
  C  113  1  0.05334800  0.98859600  0.08981400  1
  C  114  1  0.06817600  0.99075600  0.10602200  1
  C  127  1  0.91202900  0.99674600  0.12572000  1
  C  128  1  0.98079100  0.98915800  0.18230400  1
  C  129  1  0.97362500  0.98496200  0.06870000  1
  C  130  1  0.83657500  0.77278800  0.12189000  1
  C  131  1  0.85356500  0.22641200  0.12858800  1
  C  136  1  0.05649200  0.86573900  0.62460500  1
  C  137  1  0.03321700  0.80391400  0.62514100  1
  C  138  1  0.96763200  0.80640400  0.62581800  1
  C  139  1  0.94895900  0.86974800  0.62568000  1
  C  140  1  0.88445100  0.88575800  0.62635400  1
  C  141  1  0.83784000  0.83773600  0.62713300  1
  C  142  1  0.85807700  0.77369200  0.62721600  1
  C  143  1  0.92259700  0.75776600  0.62654700  1
  C  144  1  0.07447600  0.75192000  0.62472800  1
  C  145  1  0.13992700  0.76284600  0.62358700  1
  C  146  1  0.16430000  0.82520000  0.62288200  1
  C  147  1  0.12190900  0.87686200  0.62340700  1
  C  148  1  0.00423600  0.95724200  0.61172000  1
  C  149  1  0.00699200  0.01974600  0.61703200  1
  C  150  1  0.00877100  0.01940400  0.63345000  1
  C  151  1  0.00782800  0.95663600  0.63858000  1
  C  152  1  0.01198600  0.06930800  0.64436600  1
  C  153  1  0.01426600  0.05523500  0.66061600  1
  C  154  1  0.01337400  0.99179200  0.66607700  1
  C  155  1  0.01011900  0.94244000  0.65480300  1
  C  156  1  0.00375400  0.94385800  0.59544100  1
  C  157  1  0.00611200  0.99376400  0.58430200  1
  C  158  1  0.00859000  0.05690900  0.58996300  1
  C  159  1  0.00893600  0.07017900  0.60626000  1
  C  172  1  0.00437500  0.91232600  0.62510200  1
  C  173  1  0.01726200  0.97660000  0.68198800  1
  C  174  1  0.00754600  0.97946000  0.56830500  1
  C  175  1  0.22807400  0.83608700  0.62086600  1
  C  176  1  0.77437200  0.85457300  0.62795700  1
  C  181  1  0.00182000  0.00900300  0.70852800  1
  C  182  1  0.95614700  0.04211200  0.71726200  1
  C  183  1  0.95291000  0.03765700  0.73388600  1
  C  184  1  0.99787200  0.99916100  0.74194500  1
  C  185  1  0.04549400  0.96639000  0.73329800  1
  C  186  1  0.04665500  0.97221400  0.71669500  1
  C  188  1  0.99580100  0.99416200  0.75868300  1
  C  189  1  0.95855800  0.94607800  0.76594600  1
  C  190  1  0.95615600  0.94305400  0.78260000  1
  C  191  1  0.99045200  0.98529000  0.79209000  1
  C  192  1  0.02657800  0.03281700  0.78474200  1
  C  193  1  0.03016500  0.03803100  0.76814800  1
  C  197  1  0.92097200  0.89797400  0.75717100  1
  C  201  1  0.07004000  0.09026000  0.76181000  1
  C  205  1  0.09517800  0.92571600  0.74053100  1
  C  209  1  0.90172100  0.07430900  0.74177800  1
  C  215  1  0.01552600  0.99779200  0.20868400  1
  C  216  1  0.04817400  0.04311200  0.21762700  1
  C  217  1  0.04253200  0.04581400  0.23423300  1
  C  218  1  0.00349700  0.00056300  0.24203200  1
  C  219  1  0.97131800  0.95320600  0.23315900  1
  C  220  1  0.97820400  0.95264600  0.21658000  1
  C  222  1  0.99750700  0.00205000  0.25874600  1
  C  223  1  0.94902500  0.03907100  0.26591400  1
  C  224  1  0.94553200  0.04151000  0.28256200  1
  C  225  1  0.98773100  0.00750800  0.29212700  1
  C  226  1  0.03553300  0.97145200  0.28486900  1
  C  227  1  0.04118800  0.96780000  0.26828800  1
  C  231  1  0.90106100  0.07648000  0.25704500  1
  C  235  1  0.09375500  0.92811400  0.26204500  1
  C  239  1  0.93013100  0.90332300  0.24011700  1
  C  243  1  0.07846600  0.09688800  0.24237300  1
  C  249  1  0.00600200  0.99684200  0.04197500  1
  C  250  1  0.06048200  0.98661000  0.03285600  1
  C  251  1  0.05811500  0.98431200  0.01619600  1
  C  252  1  0.99883400  0.99337600  0.00851400  1
  C  253  1  0.94321000  0.00490800  0.01756800  1
  C  254  1  0.94800000  0.00666700  0.03418700  1
  C  256  1  0.99526700  0.99226000  0.99175400  1
  C  257  1  0.98247700  0.93439200  0.98373100  1
  C  258  1  0.97817400  0.93480400  0.96708500  1
  C  259  1  0.98722200  0.99040400  0.95832400  1
  C  260  1  0.99885000  0.04732500  0.96643100  1
  C  261  1  0.00323200  0.04939900  0.98305400  1
  C  265  1  0.97299400  0.87229400  0.99168500  1
  C  269  1  0.01579500  0.11246300  0.99024000  1
  C  273  1  0.87914000  0.01565300  0.01075900  1
  C  277  1  0.11900200  0.97244200  0.00786400  1
  C  283  1  0.99130200  0.01673700  0.54203200  1
  C  284  1  0.98045200  0.96035600  0.53361200  1
  C  285  1  0.97899800  0.95914000  0.51694300  1
  C  286  1  0.98847600  0.01669000  0.50851400  1
  C  287  1  0.99850200  0.07435500  0.51686400  1
  C  288  1  0.99924900  0.07317700  0.53353700  1
  C  290  1  0.98851700  0.01651900  0.49172100  1
  C  291  1  0.93123300  0.02760200  0.48329100  1
  C  292  1  0.93283600  0.02854700  0.46661800  1
  C  293  1  0.98898800  0.01756600  0.45822200  1
  C  294  1  0.04524700  0.00718700  0.46670900  1
  C  295  1  0.04616900  0.00635400  0.48337700  1
  C  299  1  0.86859400  0.03874200  0.49083700  1
  C  303  1  0.10867100  0.99508000  0.49099000  1
  C  307  1  0.00874400  0.13701300  0.50924300  1
  C  311  1  0.96763400  0.89651600  0.50940300  1
  C  317  1  0.18043800  0.33230500  0.87353500  1
  C  318  1  0.23753700  0.36561300  0.87201500  1
  C  319  1  0.23950600  0.43230600  0.87183100  1
  C  320  1  0.18183600  0.46664200  0.87334100  1
  C  321  1  0.12345400  0.43366700  0.87503200  1
  C  322  1  0.12393500  0.36691400  0.87513200  1
  C  324  1  0.18279500  0.53391600  0.87344200  1
  C  325  1  0.17947400  0.56805200  0.85893100  1
  C  326  1  0.18229800  0.63472800  0.85932000  1
  C  327  1  0.18662400  0.66799800  0.87362900  1
  C  328  1  0.19028400  0.63372600  0.88784800  1
  C  329  1  0.18851400  0.56704000  0.88804900  1
  C  333  1  0.17347600  0.53826400  0.84305100  1
  C  337  1  0.19330800  0.53624800  0.90383800  1
  C  341  1  0.06069400  0.46479200  0.87683200  1
  C  345  1  0.30309200  0.46180200  0.87010000  1
  C  351  1  0.33486100  0.81952600  0.37359100  1
  C  352  1  0.36817200  0.76243200  0.37206300  1
  C  353  1  0.43486400  0.76046800  0.37186100  1
  C  354  1  0.46920400  0.81814200  0.37335900  1
  C  355  1  0.43622300  0.87652400  0.37504200  1
  C  356  1  0.36947000  0.87604200  0.37515900  1
  C  358  1  0.53648300  0.81718800  0.37347700  1
  C  359  1  0.57070200  0.82050000  0.35897700  1
  C  360  1  0.63738100  0.81773800  0.35938600  1
  C  361  1  0.67057400  0.81341600  0.37370700  1
  C  362  1  0.63622600  0.80977800  0.38791500  1
  C  363  1  0.56953400  0.81152000  0.38809500  1
  C  367  1  0.54098800  0.82645600  0.34308700  1
  C  371  1  0.53866900  0.80673900  0.40387500  1
  C  375  1  0.46734800  0.93929800  0.37682800  1
  C  379  1  0.46436500  0.69688600  0.37013300  1
  C  385  1  0.81655000  0.33346900  0.12706800  1
  C  386  1  0.75957900  0.36681900  0.12877600  1
  C  387  1  0.75786000  0.43347700  0.12923300  1
  C  388  1  0.81567000  0.46763400  0.12783000  1
  C  389  1  0.87389800  0.43464800  0.12588000  1
  C  390  1  0.87315500  0.36794200  0.12549500  1
  C  392  1  0.81504200  0.53481200  0.12823200  1
  C  393  1  0.81867000  0.56711000  0.14299900  1
  C  394  1  0.81574200  0.63377800  0.14312800  1
  C  395  1  0.81096900  0.66867400  0.12907700  1
  C  396  1  0.80709100  0.63620600  0.11460100  1
  C  397  1  0.80904000  0.56961200  0.11388200  1
  C  401  1  0.82510300  0.53539600  0.15863400  1
  C  405  1  0.80409900  0.54074800  0.09787000  1
  C  409  1  0.93674600  0.46567300  0.12414900  1
  C  413  1  0.69443000  0.46309600  0.13118200  1
  C  419  1  0.66713700  0.81712400  0.62712800  1
  C  420  1  0.63408200  0.75999000  0.62887700  1
  C  421  1  0.56742700  0.75787600  0.62930500  1
  C  422  1  0.53292000  0.81545400  0.62784300  1
  C  423  1  0.56560400  0.87387000  0.62592000  1
  C  424  1  0.63232100  0.87352300  0.62556300  1
  C  426  1  0.46571200  0.81437800  0.62803900  1
  C  427  1  0.43260300  0.81796800  0.64269500  1
  C  428  1  0.36592500  0.81502800  0.64259700  1
  C  429  1  0.33177800  0.81032500  0.62842900  1
  C  430  1  0.36503900  0.80638800  0.61406800  1
  C  431  1  0.43167500  0.80830000  0.61357600  1
  C  435  1  0.46347400  0.82442000  0.65843300  1
  C  439  1  0.46138600  0.80330200  0.59766200  1
  C  443  1  0.53422600  0.93653000  0.62415700  1
  C  447  1  0.53816600  0.69428000  0.63124500  1
  H  25  1  0.90075300  0.00322700  0.91790300  1
  H  26  1  0.88119100  0.99040000  0.89005200  1
  H  27  1  0.88401300  0.98339800  0.85970700  1
  H  28  1  0.90851400  0.98301000  0.83200800  1
  H  29  1  0.10384300  0.99161000  0.84280900  1
  H  30  1  0.09772300  0.00894400  0.90911500  1
  H  31  1  0.06550600  0.12722300  0.87369900  1
  H  32  1  0.26031800  0.17346700  0.87287800  1
  H  33  1  0.28657000  0.06342000  0.87484500  1
  H  34  1  0.07589200  0.86147500  0.87912900  1
  H  35  1  0.29138600  0.94241200  0.87725200  1
  H  36  1  0.27352800  0.83041200  0.87988100  1
  H  42  1  0.04850400  0.04507600  0.93499400  1
  H  43  1  0.06846600  0.00213100  0.81578900  1
  H  44  1  0.13073100  0.75818200  0.88973400  1
  H  45  1  0.09877000  0.23611500  0.86984700  1
  H  70  1  0.00474700  0.10088900  0.41770700  1
  H  71  1  0.99262900  0.11940400  0.38980500  1
  H  72  1  0.98595400  0.11564700  0.35952400  1
  H  73  1  0.98539400  0.09035400  0.33187700  1
  H  74  1  0.99408800  0.89533300  0.34302800  1
  H  75  1  0.01094800  0.90358200  0.40940100  1
  H  76  1  0.12985000  0.93454800  0.37383700  1
  H  77  1  0.17594200  0.73970000  0.37300800  1
  H  78  1  0.06589600  0.71353400  0.37506900  1
  H  79  1  0.86405300  0.92433000  0.37928300  1
  H  80  1  0.94492100  0.70880000  0.37750700  1
  H  81  1  0.83290500  0.72671000  0.38006000  1
  H  87  1  0.04634300  0.95462400  0.43537100  1
  H  88  1  0.00473200  0.93004000  0.31594100  1
  H  89  1  0.76057300  0.86959800  0.38981100  1
  H  90  1  0.23866400  0.90115200  0.36986500  1
  H  115  1  0.08968300  0.98465000  0.08191200  1
  H  116  1  0.11415800  0.98849300  0.10964200  1
  H  117  1  0.11621000  0.99094600  0.14020100  1
  H  118  1  0.09533900  0.98897200  0.16811900  1
  H  119  1  0.89858900  0.99411600  0.15890900  1
  H  120  1  0.89434400  0.99452600  0.09262100  1
  H  121  1  0.93171200  0.12916700  0.12653000  1
  H  122  1  0.73691900  0.17448500  0.12910800  1
  H  123  1  0.71104100  0.06408600  0.12820400  1
  H  124  1  0.92252600  0.86312000  0.12361000  1
  H  125  1  0.70674300  0.94281400  0.12654700  1
  H  126  1  0.72507400  0.83075400  0.12446700  1
  H  132  1  0.93048100  0.97001400  0.06591100  1
  H  133  1  0.93633700  0.98081400  0.18555200  1
  H  134  1  0.86901900  0.75956600  0.11404000  1
  H  135  1  0.89827500  0.23771700  0.13079000  1
  H  160  1  0.01117800  0.09404400  0.58226300  1
  H  161  1  0.01160200  0.11581000  0.61013000  1
  H  162  1  0.01307800  0.11517300  0.64062600  1
  H  163  1  0.01734000  0.09197000  0.66842500  1
  H  164  1  0.00949500  0.89610400  0.65825200  1
  H  165  1  0.00240800  0.89770400  0.59185300  1
  H  166  1  0.87203900  0.93248400  0.62631900  1
  H  167  1  0.82598100  0.73768200  0.62786300  1
  H  168  1  0.93622300  0.71147600  0.62667700  1
  H  169  1  0.13805200  0.92237000  0.62279100  1
  H  170  1  0.05743600  0.70678500  0.62500100  1
  H  171  1  0.16957400  0.72475200  0.62295300  1
  H  177  1  0.02072500  0.93635000  0.56499000  1
  H  178  1  0.03102000  0.93327600  0.68499300  1
  H  179  1  0.24174000  0.86848000  0.61305400  1
  H  180  1  0.76316900  0.89964000  0.62967200  1
  H  187  1  0.08114200  0.94948400  0.71041300  1
  H  194  1  0.92916800  0.90906000  0.78796400  1
  H  195  1  0.04997200  0.06490000  0.79164200  1
  H  196  1  0.92395700  0.06944300  0.71133700  1
  H  198  1  0.92454900  0.90211800  0.74438600  1
  H  199  1  0.87115500  0.90242200  0.76030200  1
  H  200  1  0.93706800  0.85071200  0.76038600  1
  H  202  1  0.07153000  0.09222300  0.74896800  1
  H  203  1  0.11850600  0.08466600  0.76598000  1
  H  204  1  0.05194600  0.13554100  0.76599900  1
  H  206  1  0.09141600  0.87783400  0.73584200  1
  H  207  1  0.09217200  0.92252600  0.75334100  1
  H  208  1  0.14179400  0.94439800  0.73760800  1
  H  210  1  0.90732100  0.12446000  0.73913400  1
  H  211  1  0.90107700  0.06926800  0.75457300  1
  H  212  1  0.85586200  0.05873000  0.73735900  1
  H  221  1  0.95570800  0.91859800  0.21009300  1
  H  228  1  0.91134300  0.06844400  0.28786400  1
  H  229  1  0.06755800  0.94825200  0.29182500  1
  H  230  1  0.07576800  0.07555200  0.21187000  1
  H  232  1  0.90552100  0.07278600  0.24427000  1
  H  233  1  0.90532300  0.12633500  0.26015500  1
  H  234  1  0.85375300  0.06031300  0.26019800  1
  H  236  1  0.09594800  0.92641800  0.24920700  1
  H  237  1  0.08835800  0.87968600  0.26625700  1
  H  238  1  0.13885900  0.94653000  0.26626600  1
  H  240  1  0.88257500  0.90725600  0.23523400  1
  H  241  1  0.92608100  0.90594000  0.25291800  1
  H  242  1  0.94898900  0.85679200  0.23718300  1
  H  244  1  0.12882700  0.09141700  0.23996900  1
  H  245  1  0.07239600  0.09727200  0.25513900  1
  H  246  1  0.06317000  0.14281900  0.23793600  1
  H  255  1  0.90847000  0.01586500  0.04075000  1
  H  262  1  0.96897400  0.89356600  0.96117500  1
  H  263  1  0.00366200  0.08818500  0.96007700  1
  H  264  1  0.10280000  0.98005200  0.03850700  1
  H  266  1  0.97695000  0.87441600  0.00449400  1
  H  267  1  0.00823200  0.83865000  0.98746400  1
  H  268  1  0.92608100  0.85408200  0.98887900  1
  H  270  1  0.01899000  0.11166500  0.00306900  1
  H  271  1  0.97794500  0.14509600  0.98707000  1
  H  272  1  0.06037200  0.13110200  0.98574000  1
  H  274  1  0.84657600  0.97984000  0.01520100  1
  H  275  1  0.87776900  0.01363900  0.99791700  1
  H  276  1  0.86188800  0.06212700  0.01430400  1
  H  278  1  0.15265200  0.00973100  0.01077700  1
  H  279  1  0.11466800  0.97092400  0.99505800  1
  H  280  1  0.13853800  0.92722800  0.01167500  1
  H  289  1  0.00667400  0.11430200  0.53965600  1
  H  296  1  0.89207700  0.03684500  0.46042200  1
  H  297  1  0.08653800  0.00106800  0.46060300  1
  H  298  1  0.97303900  0.91938200  0.53974500  1
  H  300  1  0.86975900  0.03724200  0.50368600  1
  H  301  1  0.83516700  0.00279100  0.48689400  1
  H  302  1  0.85072500  0.08509100  0.48738500  1
  H  304  1  0.10699500  0.99477600  0.50383900  1
  H  305  1  0.14175600  0.03197900  0.48743300  1
  H  306  1  0.12731300  0.94946600  0.48719800  1
  H  308  1  0.97203400  0.16985700  0.51305000  1
  H  309  1  0.00781200  0.13552100  0.49639500  1
  H  310  1  0.05461800  0.15583000  0.51277600  1
  H  312  1  0.00483400  0.86363100  0.51287800  1
  H  313  1  0.96673700  0.89807800  0.49655400  1
  H  314  1  0.92226900  0.87771600  0.51333300  1
  H  323  1  0.08230000  0.34310200  0.87657600  1
  H  330  1  0.18042700  0.65976300  0.84897100  1
  H  331  1  0.19528700  0.65799500  0.89823500  1
  H  332  1  0.27879400  0.34058000  0.87098200  1
  H  334  1  0.17096400  0.48691200  0.84338100  1
  H  335  1  0.21407400  0.55113800  0.83578600  1
  H  336  1  0.13061000  0.55524200  0.83728200  1
  H  338  1  0.19184400  0.48487600  0.90339800  1
  H  339  1  0.15428200  0.55186800  0.91130200  1
  H  340  1  0.23770800  0.54972800  0.90946000  1
  H  342  1  0.02943000  0.44972300  0.86729900  1
  H  343  1  0.06274100  0.51616800  0.87655200  1
  H  344  1  0.03963800  0.45103600  0.88808500  1
  H  346  1  0.33342100  0.44687900  0.87983400  1
  H  347  1  0.30226000  0.51322000  0.87007300  1
  H  348  1  0.32447800  0.44654100  0.85900900  1
  H  357  1  0.34565800  0.91767200  0.37660600  1
  H  364  1  0.66246900  0.81959500  0.34904600  1
  H  365  1  0.66044000  0.80483000  0.39831100  1
  H  366  1  0.34313800  0.72117000  0.37104600  1
  H  368  1  0.48963100  0.82891200  0.34340100  1
  H  369  1  0.55394100  0.78586400  0.33582800  1
  H  370  1  0.55795400  0.86933200  0.33732000  1
  H  372  1  0.48729500  0.80817000  0.40342100  1
  H  373  1  0.55422600  0.84579200  0.41133900  1
  H  374  1  0.55214500  0.76236400  0.40950800  1
  H  376  1  0.45223600  0.97053900  0.36729600  1
  H  377  1  0.51872300  0.93725800  0.37653400  1
  H  378  1  0.45362800  0.96036800  0.38808200  1
  H  380  1  0.44949000  0.66657600  0.37987600  1
  H  381  1  0.51577800  0.69772200  0.37009000  1
  H  382  1  0.44906000  0.67546400  0.35905000  1
  H  391  1  0.91469400  0.34408900  0.12393600  1
  H  398  1  0.81778000  0.65757200  0.15365600  1
  H  399  1  0.80188400  0.66174200  0.10441200  1
  H  400  1  0.71828200  0.34185900  0.12981700  1
  H  402  1  0.82777100  0.48412000  0.15790600  1
  H  403  1  0.78462900  0.54724400  0.16605000  1
  H  404  1  0.86804500  0.55179200  0.16447400  1
  H  406  1  0.80577500  0.48935200  0.09791600  1
  H  407  1  0.84294800  0.55742200  0.09049000  1
  H  408  1  0.75956300  0.55473600  0.09239700  1
  H  410  1  0.96808600  0.44990000  0.13359500  1
  H  411  1  0.93487200  0.51703200  0.12462800  1
  H  412  1  0.95760100  0.45255500  0.11282600  1
  H  414  1  0.66378400  0.44885000  0.12144600  1
  H  415  1  0.69543900  0.51450400  0.13139000  1
  H  416  1  0.67328500  0.44726600  0.14225200  1
  H  425  1  0.65591400  0.91520200  0.62399500  1
  H  432  1  0.34156400  0.81712000  0.65304200  1
  H  433  1  0.34006400  0.80116800  0.60379300  1
  H  434  1  0.65927000  0.71882800  0.62991400  1
  H  436  1  0.51478800  0.82703600  0.65787600  1
  H  437  1  0.45119900  0.78397200  0.66581300  1
  H  438  1  0.44680100  0.86738800  0.66421200  1
  H  440  1  0.51277600  0.80487800  0.59787800  1
  H  441  1  0.44517000  0.84217400  0.59022800  1
  H  442  1  0.44761500  0.75878600  0.59214200  1
  H  444  1  0.54982000  0.96803800  0.63358600  1
  H  445  1  0.48287800  0.93438200  0.62464200  1
  H  446  1  0.54723000  0.95736000  0.61282300  1
  H  448  1  0.55260200  0.66371600  0.62151000  1
  H  449  1  0.48675300  0.69500400  0.63145200  1
  H  450  1  0.55409300  0.67322000  0.64231600  1
  N  213  1  0.98400300  0.98109400  0.80764800  1
  N  214  1  0.00147000  0.01563100  0.69292500  1
  N  247  1  0.98335100  0.01422800  0.30767100  1
  N  248  1  0.02236600  0.99875400  0.19310300  1
  N  281  1  0.98191100  0.98721000  0.94273300  1
  N  282  1  0.01264600  0.99836600  0.05756900  1
  N  315  1  0.98701800  0.02093400  0.44259000  1
  N  316  1  0.99313100  0.02032800  0.55768100  1
  N  349  1  0.19086400  0.73051600  0.87316400  1
  N  350  1  0.18401800  0.26963400  0.87385400  1
  N  383  1  0.73310700  0.80924400  0.37327400  1
  N  384  1  0.27218600  0.81596000  0.37394400  1
  N  417  1  0.80662000  0.73104600  0.12996000  1
  N  418  1  0.81284200  0.27084300  0.12679700  1
  N  451  1  0.26933400  0.80612800  0.62909300  1
  N  452  1  0.72978300  0.81366000  0.62675000  1
