# generated using pymatgen
data_V2H6C25(O5F4)2
_symmetry_space_group_name_H-M   'P 1'
_cell_length_a   7.25501000
_cell_length_b   13.57608000
_cell_length_c   20.14832000
_cell_angle_alpha   102.88973000
_cell_angle_beta   89.99987000
_cell_angle_gamma   89.99994000
_symmetry_Int_Tables_number   1
_chemical_formula_structural   V2H6C25(O5F4)2
_chemical_formula_sum   'V4 H12 C50 O20 F16'
_cell_volume   1934.49359716
_cell_formula_units_Z   2
loop_
 _symmetry_equiv_pos_site_id
 _symmetry_equiv_pos_as_xyz
  1  'x, y, z'
loop_
 _atom_site_type_symbol
 _atom_site_label
 _atom_site_symmetry_multiplicity
 _atom_site_fract_x
 _atom_site_fract_y
 _atom_site_fract_z
 _atom_site_occupancy
  V  V0  1  0.06466000  0.51189000  0.50231000  1
  V  V1  1  0.56466000  0.48811000  0.49769000  1
  V  V2  1  0.64818000  0.98811000  0.99769000  1
  V  V3  1  0.14818000  0.01189000  0.00231000  1
  H  H4  1  0.96613000  0.17301000  0.51576000  1
  H  H5  1  0.46616000  0.82699000  0.48424000  1
  H  H6  1  0.85901000  0.46750000  0.91825000  1
  H  H7  1  0.35903000  0.53250000  0.08175000  1
  H  H8  1  0.56528000  0.33774000  0.29282000  1
  H  H9  1  0.06527000  0.66226000  0.70718000  1
  H  H10  1  0.98457000  0.89914000  0.71825000  1
  H  H11  1  0.88286000  0.92019000  0.64241000  1
  H  H12  1  0.12734000  0.94468000  0.65990000  1
  H  H13  1  0.48460000  0.10085000  0.28174000  1
  H  H14  1  0.38289000  0.07981000  0.35759000  1
  H  H15  1  0.62736000  0.05531000  0.34009000  1
  C  C16  1  0.34440000  0.61769000  0.61477000  1
  C  C17  1  0.84440000  0.38231000  0.38523000  1
  C  C18  1  0.34609000  0.63794000  0.43659000  1
  C  C19  1  0.84609000  0.36206000  0.56341000  1
  C  C20  1  0.95923000  0.11421000  0.60598000  1
  C  C21  1  0.45926000  0.88579000  0.39402000  1
  C  C22  1  0.85972000  0.28214000  0.60123000  1
  C  C23  1  0.35972000  0.71787000  0.39877000  1
  C  C24  1  0.84475000  0.31367000  0.92732000  1
  C  C25  1  0.34477000  0.68632000  0.07268000  1
  C  C26  1  0.85767000  0.38907000  0.89114000  1
  C  C27  1  0.35769000  0.61093000  0.10887000  1
  C  C28  1  0.87741000  0.36469000  0.82068000  1
  C  C29  1  0.37741000  0.63531000  0.17933000  1
  C  C30  1  0.87269000  0.26234000  0.78380000  1
  C  C31  1  0.37268000  0.73766000  0.21619000  1
  C  C32  1  0.88039000  0.18523000  0.82136000  1
  C  C33  1  0.38037000  0.81477000  0.17864000  1
  C  C34  1  0.87428000  0.23485000  0.71121000  1
  C  C35  1  0.37428000  0.76516000  0.28879000  1
  C  C36  1  0.92683000  0.13482000  0.67737000  1
  C  C37  1  0.42684000  0.86518000  0.32263000  1
  C  C38  1  0.94313000  0.05909000  0.71560000  1
  C  C39  1  0.44313000  0.94091000  0.28439000  1
  C  C40  1  0.91248000  0.08424000  0.78623000  1
  C  C41  1  0.41244000  0.91576000  0.21377000  1
  C  C42  1  0.82124000  0.30333000  0.67079000  1
  C  C43  1  0.32123000  0.69667000  0.32921000  1
  C  C44  1  0.93292000  0.18887000  0.56955000  1
  C  C45  1  0.43294000  0.81113000  0.43045000  1
  C  C46  1  0.86151000  0.21221000  0.89363000  1
  C  C47  1  0.36151000  0.78779000  0.10637000  1
  C  C48  1  0.01754000  0.19870000  0.22609000  1
  C  C49  1  0.51754000  0.80130000  0.77391000  1
  C  C50  1  0.01367000  0.26236000  0.29109000  1
  C  C51  1  0.51367000  0.73763000  0.70891000  1
  C  C52  1  0.85097000  0.31360000  0.31646000  1
  C  C53  1  0.35097000  0.68640000  0.68354000  1
  C  C54  1  0.69259000  0.29902000  0.27510000  1
  C  C55  1  0.19259000  0.70098000  0.72490000  1
  C  C56  1  0.69614000  0.23594000  0.20987000  1
  C  C57  1  0.19614000  0.76406000  0.79013000  1
  C  C58  1  0.85904000  0.18461000  0.18418000  1
  C  C59  1  0.35904000  0.81539000  0.81582000  1
  C  C60  1  0.36836000  0.86292000  0.06429000  1
  C  C61  1  0.86837000  0.13708000  0.93571000  1
  C  C62  1  0.36488000  0.88320000  0.88531000  1
  C  C63  1  0.86488000  0.11680000  0.11470000  1
  C  C64  1  0.98685000  0.95005000  0.68225000  1
  C  C65  1  0.48688000  0.04994000  0.31774000  1
  O  O66  1  0.50681000  0.59970000  0.44956000  1
  O  O67  1  0.00681000  0.40030000  0.55044000  1
  O  O68  1  0.18006000  0.59576000  0.58796000  1
  O  O69  1  0.68006000  0.40424000  0.41204000  1
  O  O70  1  0.17743000  0.61170000  0.45238000  1
  O  O71  1  0.67743000  0.38830000  0.54762000  1
  O  O72  1  0.00189000  0.41635000  0.41390000  1
  O  O73  1  0.50189000  0.58365000  0.58610000  1
  O  O74  1  0.33749000  0.43589000  0.48753000  1
  O  O75  1  0.83749000  0.56411000  0.51247000  1
  O  O76  1  0.20337000  0.91626000  0.91392000  1
  O  O77  1  0.70337000  0.08374000  0.08608000  1
  O  O78  1  0.53554000  0.88829000  0.04762000  1
  O  O79  1  0.03554000  0.11171000  0.95238000  1
  O  O80  1  0.53278000  0.90422000  0.91204000  1
  O  O81  1  0.03278000  0.09578000  0.08796000  1
  O  O82  1  0.70816000  0.09972000  0.94955000  1
  O  O83  1  0.20816000  0.90028000  0.05045000  1
  O  O84  1  0.37530000  0.06406000  0.01248000  1
  O  O85  1  0.87530000  0.93594000  0.98752000  1
  F  F86  1  0.16924000  0.27189000  0.32948000  1
  F  F87  1  0.66925000  0.72810000  0.67052000  1
  F  F88  1  0.54030000  0.22720000  0.17173000  1
  F  F89  1  0.04029000  0.77281000  0.82826000  1
  F  F90  1  0.02262000  0.02382000  0.57040000  1
  F  F91  1  0.52267000  0.97618000  0.42960000  1
  F  F92  1  0.72100000  0.38756000  0.69700000  1
  F  F93  1  0.22098000  0.61245000  0.30300000  1
  F  F94  1  0.82798000  0.33997000  0.99616000  1
  F  F95  1  0.32802000  0.66003000  0.00383000  1
  F  F96  1  0.92404000  0.44141000  0.79083000  1
  F  F97  1  0.42405000  0.55859000  0.20918000  1
  F  F98  1  0.92312000  0.00927000  0.82081000  1
  F  F99  1  0.42305000  0.99074000  0.17919000  1
  F  F100  1  0.17715000  0.14959000  0.20506000  1
  F  F101  1  0.67715000  0.85041000  0.79494000  1
