# generated using pymatgen
data_H28C39(N4O)2
_symmetry_space_group_name_H-M   'P 1'
_cell_length_a   16.02130000
_cell_length_b   16.02125000
_cell_length_c   31.79730000
_cell_angle_alpha   89.96860000
_cell_angle_beta   90.03140000
_cell_angle_gamma   90.00000000
_symmetry_Int_Tables_number   1
_chemical_formula_structural   H28C39(N4O)2
_chemical_formula_sum   'H56 C78 N16 O4'
_cell_volume   8161.76834278
_cell_formula_units_Z   2
loop_
 _symmetry_equiv_pos_site_id
 _symmetry_equiv_pos_as_xyz
  1  'x, y, z'
loop_
 _atom_site_type_symbol
 _atom_site_label
 _atom_site_symmetry_multiplicity
 _atom_site_fract_x
 _atom_site_fract_y
 _atom_site_fract_z
 _atom_site_occupancy
  C  1  1  0.01728000  0.88773200  0.88302500  1
  C  2  1  0.94243400  0.85461400  0.89908200  1
  C  3  1  0.94177900  0.81070600  0.93736400  1
  C  4  1  0.01647100  0.79417200  0.96002500  1
  C  5  1  0.08919000  0.83667500  0.94575100  1
  C  6  1  0.09047800  0.88073900  0.90745000  1
  C  7  1  0.02027300  0.73762300  0.99884700  1
  C  8  1  0.02982000  0.80245600  0.03392600  1
  C  9  1  0.10657800  0.81913100  0.05476400  1
  C  10  1  0.11139600  0.87371300  0.08930800  1
  C  11  1  0.03986900  0.91690500  0.10338800  1
  C  12  1  0.96526800  0.90791500  0.08038200  1
  C  13  1  0.96119800  0.85374600  0.04563700  1
  C  14  1  0.94442000  0.68018200  0.00395400  1
  C  15  1  0.09080000  0.67311000  0.99755500  1
  C  16  1  0.11397100  0.62908100  0.03465200  1
  C  17  1  0.18330500  0.57531300  0.03565500  1
  C  18  1  0.22976000  0.55995900  0.99876500  1
  C  19  1  0.20271800  0.59618400  0.96081300  1
  C  20  1  0.13319400  0.64970200  0.96009700  1
  C  21  1  0.91717100  0.62916800  0.96995800  1
  C  22  1  0.84455800  0.58001900  0.97256100  1
  C  23  1  0.79833400  0.57684500  0.01028200  1
  C  24  1  0.82874400  0.62031700  0.04554600  1
  C  25  1  0.90139400  0.66914500  0.04265300  1
  C  46  1  0.89808600  0.04008100  0.38072000  1
  C  47  1  0.86608000  0.11243900  0.40025000  1
  C  48  1  0.81513100  0.10595900  0.43611800  1
  C  49  1  0.79094300  0.02732300  0.45291500  1
  C  50  1  0.83143900  0.95630900  0.43556100  1
  C  51  1  0.88248900  0.96219700  0.39971200  1
  C  52  1  0.73278100  0.01949200  0.49081700  1
  C  53  1  0.79700900  0.01629100  0.52641500  1
  C  54  1  0.82900400  0.93957900  0.54208900  1
  C  55  1  0.88299400  0.93671700  0.57690400  1
  C  56  1  0.91043500  0.01107900  0.59628600  1
  C  57  1  0.88574300  0.08790900  0.57878700  1
  C  58  1  0.83286900  0.09015000  0.54344500  1
  C  59  1  0.66889600  0.09004100  0.49428000  1
  C  60  1  0.67384500  0.94443900  0.48994900  1
  C  61  1  0.63819100  0.91307900  0.52775100  1
  C  62  1  0.58731600  0.84162900  0.52815100  1
  C  63  1  0.56655900  0.80081900  0.49023300  1
  C  64  1  0.59545800  0.83495200  0.45212200  1
  C  65  1  0.64586100  0.90686900  0.45199300  1
  C  66  1  0.62630100  0.12064000  0.45815700  1
  C  67  1  0.57347900  0.19066900  0.46021400  1
  C  68  1  0.55766900  0.22975700  0.49915500  1
  C  69  1  0.59128700  0.19418300  0.53591900  1
  C  70  1  0.64371500  0.12404700  0.53354800  1
  C  91  1  0.06278600  0.01518800  0.20420800  1
  C  93  1  0.96604700  0.10534900  0.23919800  1
  C  94  1  0.98980000  0.07245500  0.27858200  1
  C  96  1  0.08915600  0.98340500  0.24376500  1
  C  98  1  0.15267200  0.91677100  0.24923400  1
  C  103  1  0.09009000  0.98354700  0.16632400  1
  C  105  1  0.94878800  0.09389300  0.31518000  1
  C  107  1  0.01769500  0.96203100  0.69080100  1
  C  109  1  0.08716700  0.02093200  0.75037400  1
  C  110  1  0.04778300  0.96298300  0.77729100  1
  C  112  1  0.97775200  0.90316500  0.71735700  1
  C  114  1  0.91860300  0.83801900  0.70262800  1
  C  119  1  0.00494600  0.96294400  0.64812400  1
  C  121  1  0.06428900  0.95743800  0.81991000  1
  C  123  1  0.42678100  0.46850300  0.01972900  1
  C  125  1  0.54254300  0.43181700  0.97603100  1
  C  126  1  0.59759800  0.47604400  0.00258300  1
  C  128  1  0.48138800  0.51184700  0.04724400  1
  C  130  1  0.45390400  0.56025700  0.08458400  1
  C  135  1  0.34155600  0.47340500  0.02357600  1
  C  137  1  0.68039700  0.49005500  0.99234000  1
  C  139  1  0.46920700  0.60487800  0.50881000  1
  C  141  1  0.42963400  0.49293300  0.46320800  1
  C  142  1  0.46634200  0.43427900  0.49071100  1
  C  144  1  0.50472900  0.54671000  0.53730900  1
  C  146  1  0.55048000  0.56975900  0.57624600  1
  C  151  1  0.47899200  0.68949300  0.51361500  1
  C  153  1  0.47743900  0.35134700  0.47986100  1
  H  26  1  0.20233500  0.55175100  0.06396900  1
  H  27  1  0.08392200  0.64083500  0.06239300  1
  H  28  1  0.23544100  0.58647700  0.93359000  1
  H  29  1  0.11604200  0.67366900  0.93163800  1
  H  30  1  0.94756000  0.63150300  0.94170500  1
  H  31  1  0.82377400  0.55001800  0.94619400  1
  H  32  1  0.79689600  0.61858300  0.07346000  1
  H  33  1  0.92114600  0.69817600  0.06942200  1
  H  34  1  0.90504300  0.84751400  0.03064900  1
  H  35  1  0.91222300  0.93834700  0.08973200  1
  H  36  1  0.16686400  0.87887700  0.10497300  1
  H  37  1  0.16025300  0.78966100  0.04592700  1
  H  38  1  0.14440800  0.82986100  0.96153700  1
  H  39  1  0.88574900  0.78798100  0.94744700  1
  H  40  1  0.88827600  0.85895800  0.88208700  1
  H  45  1  0.14614800  0.90294600  0.89642000  1
  H  71  1  0.56921900  0.81741700  0.55647700  1
  H  72  1  0.65297800  0.93946200  0.55605300  1
  H  73  1  0.58152200  0.80654500  0.42414800  1
  H  74  1  0.66438000  0.92973900  0.42350300  1
  H  75  1  0.63838400  0.09589500  0.42916400  1
  H  76  1  0.55139100  0.21590000  0.43284400  1
  H  77  1  0.58097100  0.22133000  0.56460700  1
  H  78  1  0.66697700  0.10096700  0.56110700  1
  H  79  1  0.81622600  0.14735500  0.53193400  1
  H  80  1  0.90424400  0.14280500  0.59236100  1
  H  81  1  0.89830400  0.87984900  0.58936400  1
  H  82  1  0.80981600  0.88399700  0.52966700  1
  H  83  1  0.82119700  0.89829800  0.44790800  1
  H  84  1  0.79386800  0.16014700  0.44921300  1
  H  85  1  0.87863600  0.17032500  0.38829900  1
  H  90  1  0.90626900  0.90864500  0.38685600  1
  H  97  1  0.91933000  0.14849500  0.23646200  1
  H  100  1  0.16454800  0.90464900  0.28258900  1
  H  101  1  0.21135700  0.93782100  0.23542100  1
  H  102  1  0.07949400  0.81807500  0.24368900  1
  H  104  1  0.15012700  0.97025000  0.16257800  1
  H  106  1  0.91818700  0.14781100  0.31648200  1
  H  113  1  0.12828700  0.06425300  0.76167400  1
  H  116  1  0.89992400  0.79700800  0.72851200  1
  H  117  1  0.94983400  0.79919700  0.67924300  1
  H  118  1  0.81386500  0.90292900  0.70556000  1
  H  120  1  0.02712400  0.91590600  0.63108400  1
  H  122  1  0.11594900  0.98275500  0.83160200  1
  H  129  1  0.56281800  0.40439000  0.94887400  1
  H  132  1  0.50752500  0.58520900  0.10183100  1
  H  133  1  0.42063400  0.51850700  0.10590000  1
  H  134  1  0.43090400  0.66836200  0.05687700  1
  H  136  1  0.31450800  0.45392300  0.04989900  1
  H  138  1  0.70427400  0.46481600  0.96645800  1
  H  145  1  0.40455200  0.47530500  0.43501100  1
  H  148  1  0.56927900  0.51409900  0.59384500  1
  H  149  1  0.50888000  0.60568000  0.59649300  1
  H  150  1  0.66311000  0.58498300  0.55203000  1
  H  152  1  0.45949100  0.71682000  0.53986900  1
  H  154  1  0.45743700  0.33064200  0.45216900  1
  N  41  1  0.30486700  0.52531100  0.99900800  1
  N  42  1  0.72309500  0.54315500  0.01363800  1
  N  43  1  0.01654100  0.91284800  0.84333400  1
  N  44  1  0.03564500  0.95864000  0.13942800  1
  N  86  1  0.53144800  0.72587000  0.48920400  1
  N  87  1  0.52500100  0.30530900  0.50267400  1
  N  88  1  0.94009000  0.03967100  0.34467600  1
  N  89  1  0.94719000  0.01055400  0.63370400  1
  N  92  1  0.00209200  0.07460300  0.20389000  1
  N  95  1  0.05037800  0.01298800  0.27877100  1
  N  108  1  0.07065300  0.01837800  0.70845900  1
  N  111  1  0.99534800  0.90682800  0.75906700  1
  N  124  1  0.45975000  0.43117800  0.98510400  1
  N  127  1  0.56354300  0.51394400  0.03681600  1
  N  140  1  0.43387700  0.57535600  0.47286000  1
  N  143  1  0.50228200  0.46487000  0.52631400  1
  O  99  1  0.12894400  0.84038200  0.22912200  1
  O  115  1  0.84541100  0.87300600  0.68368000  1
  O  131  1  0.39914000  0.62759000  0.07365200  1
  O  147  1  0.62287300  0.61947700  0.56771100  1
