# generated using pymatgen
data_H13(C8N)2
_symmetry_space_group_name_H-M   'P 1'
_cell_length_a   39.49880000
_cell_length_b   39.49880000
_cell_length_c   39.71678124
_cell_angle_alpha   119.81861094
_cell_angle_beta   119.81861094
_cell_angle_gamma   90.00000000
_symmetry_Int_Tables_number   1
_chemical_formula_structural   H13(C8N)2
_chemical_formula_sum   'H208 C256 N32'
_cell_volume   44054.57046962
_cell_formula_units_Z   16
loop_
 _symmetry_equiv_pos_site_id
 _symmetry_equiv_pos_as_xyz
  1  'x, y, z'
loop_
 _atom_site_type_symbol
 _atom_site_label
 _atom_site_symmetry_multiplicity
 _atom_site_fract_x
 _atom_site_fract_y
 _atom_site_fract_z
 _atom_site_occupancy
  C  1  1  0.08312150  0.30606650  0.77746300  1
  C  2  1  0.10481400  0.34399650  0.82301600  1
  C  3  1  0.13572950  0.34673200  0.86409300  1
  C  4  1  0.14420300  0.31019550  0.85873300  1
  C  5  1  0.12280900  0.27169050  0.81398000  1
  C  6  1  0.09279800  0.27041300  0.77371000  1
  C  10  1  0.04736350  0.30139350  0.73724000  1
  C  11  1  0.01426100  0.31199750  0.74007300  1
  C  12  1  0.97600700  0.30317450  0.69998600  1
  C  13  1  0.97161900  0.28414250  0.65637500  1
  C  14  1  0.00395100  0.27298300  0.65176800  1
  C  15  1  0.04153300  0.28147900  0.69268200  1
  C  19  1  0.99753200  0.25464550  0.60761900  1
  C  20  1  0.12796900  0.23497500  0.80900700  1
  C  21  1  0.15584600  0.38296500  0.90959900  1
  C  22  1  0.94367100  0.31178600  0.70425100  1
  C  27  1  0.70064750  0.94747200  0.77747700  1
  C  28  1  0.72447350  0.95505250  0.82301300  1
  C  29  1  0.73462800  0.99338500  0.86409900  1
  C  30  1  0.72078100  0.02456500  0.85875200  1
  C  31  1  0.69742750  0.01833000  0.81400800  1
  C  32  1  0.68716900  0.97934950  0.77372300  1
  C  36  1  0.69614000  0.91187200  0.73725600  1
  C  37  1  0.73208450  0.90414550  0.74007400  1
  C  38  1  0.73025300  0.87289050  0.69998500  1
  C  39  1  0.69102650  0.84829950  0.65637900  1
  C  40  1  0.65408500  0.85483200  0.65177900  1
  C  41  1  0.65741700  0.88724100  0.69269700  1
  C  45  1  0.61635650  0.82901750  0.60763400  1
  C  46  1  0.68722000  0.05006550  0.80905400  1
  C  47  1  0.76002750  0.00265200  0.90959900  1
  C  48  1  0.76685700  0.86858600  0.70422900  1
  C  53  1  0.96304250  0.06852350  0.27771000  1
  C  54  1  0.97058200  0.09027550  0.32323000  1
  C  55  1  0.00888000  0.12126400  0.36432800  1
  C  56  1  0.04008100  0.12977250  0.35901200  1
  C  57  1  0.03388800  0.10834600  0.31429100  1
  C  58  1  0.99494050  0.07827700  0.27399700  1
  C  62  1  0.92749900  0.03275650  0.23750400  1
  C  63  1  0.91983400  0.99964900  0.24037500  1
  C  64  1  0.88862450  0.96135000  0.20030900  1
  C  65  1  0.86402800  0.95691800  0.15667200  1
  C  66  1  0.87050950  0.98923200  0.15201700  1
  C  67  1  0.90286650  0.02685950  0.19291200  1
  C  71  1  0.84468600  0.98275200  0.10784100  1
  C  72  1  0.06564500  0.11356300  0.30936700  1
  C  73  1  0.01807650  0.14141650  0.40980300  1
  C  74  1  0.88436500  0.92901150  0.20461000  1
  C  79  1  0.32096800  0.68519550  0.27770100  1
  C  80  1  0.35893500  0.70896550  0.32322600  1
  C  81  1  0.36171800  0.71906500  0.36431200  1
  C  82  1  0.32518100  0.70528500  0.35898500  1
  C  83  1  0.28665250  0.68201850  0.31426200  1
  C  84  1  0.28532550  0.67179050  0.27397700  1
  C  88  1  0.31625550  0.68078850  0.23748500  1
  C  89  1  0.32686250  0.71675550  0.24037400  1
  C  90  1  0.31803600  0.71497600  0.20031200  1
  C  91  1  0.29899100  0.67576800  0.15667600  1
  C  92  1  0.28781500  0.63880550  0.15201700  1
  C  93  1  0.29632300  0.64208400  0.19290800  1
  C  97  1  0.26947000  0.60110500  0.10784600  1
  C  98  1  0.24995600  0.67192850  0.30933300  1
  C  99  1  0.39799100  0.74436350  0.40979800  1
  C  100  1  0.32668900  0.75159900  0.20461900  1
  C  209  1  0.92891000  0.67648850  0.23484200  1
  C  210  1  0.90720150  0.63852250  0.18931900  1
  C  211  1  0.87621950  0.63571950  0.14821900  1
  C  212  1  0.86770400  0.67223100  0.15352600  1
  C  213  1  0.88910800  0.71075900  0.19824700  1
  C  214  1  0.91917900  0.71210800  0.23854600  1
  C  218  1  0.96472100  0.68122750  0.27507600  1
  C  219  1  0.99782200  0.67065600  0.27221600  1
  C  220  1  0.03611600  0.67952450  0.31229800  1
  C  221  1  0.04053350  0.69857700  0.35592700  1
  C  222  1  0.00821350  0.70972150  0.36056500  1
  C  223  1  0.97059250  0.70117350  0.31965500  1
  C  227  1  0.01467050  0.72806450  0.40472800  1
  C  228  1  0.88390750  0.74744250  0.20316800  1
  C  229  1  0.85607250  0.59944000  0.10274000  1
  C  230  1  0.06844800  0.67092300  0.30800600  1
  C  235  1  0.31217650  0.03430300  0.23483000  1
  C  236  1  0.28839250  0.02677850  0.18931900  1
  C  237  1  0.27830150  0.98849500  0.14821900  1
  C  238  1  0.29215800  0.95729950  0.15352100  1
  C  239  1  0.31547750  0.96348800  0.19824100  1
  C  240  1  0.32568250  0.00241850  0.23854200  1
  C  244  1  0.31663350  0.06984450  0.27505600  1
  C  245  1  0.28066100  0.07752650  0.27219700  1
  C  246  1  0.28244000  0.10873150  0.31227200  1
  C  247  1  0.32164850  0.13331150  0.35590800  1
  C  248  1  0.35861100  0.12681550  0.36055400  1
  C  249  1  0.35533050  0.09446150  0.31964700  1
  C  253  1  0.39631400  0.15263200  0.40472100  1
  C  254  1  0.32570300  0.93174500  0.20314900  1
  C  255  1  0.25295900  0.97929400  0.10274000  1
  C  256  1  0.24580800  0.11301800  0.30797400  1
  C  261  1  0.04995500  0.91437750  0.73510300  1
  C  262  1  0.04236800  0.89268050  0.68956300  1
  C  263  1  0.00402300  0.86177700  0.64846200  1
  C  264  1  0.97283350  0.85328300  0.65379400  1
  C  265  1  0.97906350  0.87465250  0.69853400  1
  C  266  1  0.01805650  0.90464950  0.73883000  1
  C  270  1  0.08555550  0.95008400  0.77533500  1
  C  271  1  0.09331550  0.98320600  0.77252300  1
  C  272  1  0.12457850  0.02145850  0.81262100  1
  C  273  1  0.14913200  0.02584050  0.85623000  1
  C  274  1  0.14256700  0.99350350  0.86082500  1
  C  275  1  0.11015950  0.95592250  0.81989800  1
  C  279  1  0.16835700  0.99992000  0.90497600  1
  C  280  1  0.94731650  0.86945400  0.70348700  1
  C  281  1  0.99477100  0.84169700  0.60296800  1
  C  282  1  0.12891450  0.05380600  0.80837000  1
  C  287  1  0.69139450  0.29676350  0.73509900  1
  C  288  1  0.65345750  0.27289200  0.68954800  1
  C  289  1  0.65071000  0.26273550  0.64846600  1
  C  290  1  0.68724050  0.27657200  0.65381400  1
  C  291  1  0.72574200  0.29994500  0.69856300  1
  C  292  1  0.72703550  0.31021650  0.73884500  1
  C  296  1  0.69609050  0.30124300  0.77534100  1
  C  297  1  0.68548600  0.26531350  0.77251600  1
  C  298  1  0.69430700  0.26716350  0.81261200  1
  C  299  1  0.71334300  0.30639250  0.85621400  1
  C  300  1  0.72450250  0.34332400  0.86080800  1
  C  301  1  0.71599900  0.33997750  0.81988400  1
  C  305  1  0.74283700  0.38106150  0.90494900  1
  C  306  1  0.76244300  0.31012700  0.70353300  1
  C  307  1  0.61447850  0.23733500  0.60295900  1
  C  308  1  0.68567250  0.23057600  0.80836400  1
  C  417  1  0.99955450  0.17449350  0.46283000  1
  C  418  1  0.98880400  0.15266500  0.47724200  1
  C  419  1  0.99630200  0.17352300  0.52223200  1
  C  420  1  0.01474850  0.21679250  0.55409800  1
  C  421  1  0.02661400  0.23957750  0.54070400  1
  C  424  1  0.01800350  0.21837050  0.49425300  1
  C  425  1  0.04810700  0.28527400  0.57503600  1
  C  429  1  0.02807700  0.24211500  0.47869900  1
  C  435  1  0.46954900  0.76436800  0.46283200  1
  C  436  1  0.49470350  0.80061450  0.47724600  1
  C  437  1  0.53218850  0.82475550  0.52224200  1
  C  438  1  0.54561700  0.81334900  0.55410500  1
  C  439  1  0.52036500  0.77716450  0.54071000  1
  C  442  1  0.48252950  0.75191450  0.49425700  1
  C  443  1  0.53320800  0.76580350  0.57504500  1
  C  447  1  0.45691400  0.71260850  0.47870100  1
  C  453  1  0.77998200  0.98431850  0.96277700  1
  C  454  1  0.81622550  0.97357750  0.97722000  1
  C  455  1  0.84040100  0.98120400  0.02227400  1
  C  456  1  0.82903750  0.99976800  0.05416600  1
  C  457  1  0.79285850  0.01163050  0.04073900  1
  C  460  1  0.76757000  0.00289250  0.99422900  1
  C  461  1  0.78154200  0.03325850  0.07509800  1
  C  465  1  0.72827350  0.01296800  0.97864900  1
  C  471  1  0.18906650  0.45447700  0.96277500  1
  C  472  1  0.16727150  0.47967150  0.97722300  1
  C  473  1  0.18815450  0.51710300  0.02226900  1
  C  474  1  0.23141100  0.53042350  0.05416000  1
  C  475  1  0.25415600  0.50512400  0.04073600  1
  C  478  1  0.23293150  0.46735150  0.99422800  1
  C  479  1  0.29982900  0.51784200  0.07509600  1
  C  483  1  0.25664200  0.44169050  0.97864400  1
  C  489  1  0.01309200  0.80845100  0.54978200  1
  C  490  1  0.02387350  0.83025400  0.53536300  1
  C  491  1  0.01626550  0.80938100  0.49031700  1
  C  492  1  0.99766650  0.76612900  0.45840400  1
  C  493  1  0.98575450  0.74337800  0.47180200  1
  C  496  1  0.99448400  0.76459300  0.51830700  1
  C  497  1  0.96408600  0.69771050  0.43741800  1
  C  501  1  0.98436450  0.74087200  0.53385800  1
  C  507  1  0.54295700  0.21732500  0.54976400  1
  C  508  1  0.51777050  0.18109550  0.53534400  1
  C  509  1  0.48033750  0.15691150  0.49029500  1
  C  510  1  0.46700100  0.16826200  0.45838900  1
  C  511  1  0.49229850  0.20442250  0.47179000  1
  C  514  1  0.53007350  0.22971650  0.51829400  1
  C  515  1  0.47956450  0.21571450  0.43741000  1
  C  519  1  0.55572600  0.26900300  0.53385000  1
  C  525  1  0.23298650  0.99783100  0.04972100  1
  C  526  1  0.19674500  0.00858200  0.03531500  1
  C  527  1  0.17261250  0.00108950  0.99032500  1
  C  528  1  0.18402000  0.98265850  0.95846300  1
  C  529  1  0.22020300  0.97080050  0.97185600  1
  C  532  1  0.24544350  0.97939600  0.01829900  1
  C  533  1  0.23157100  0.94932350  0.93752500  1
  C  537  1  0.28474250  0.96932500  0.03384700  1
  C  543  1  0.82301450  0.52788500  0.04972300  1
  C  544  1  0.84484450  0.50271350  0.03532600  1
  C  545  1  0.82398600  0.46521350  0.99034100  1
  C  546  1  0.78071800  0.45179550  0.95846700  1
  C  547  1  0.75793400  0.47706600  0.97184500  1
  C  550  1  0.77913750  0.51491200  0.01829000  1
  C  551  1  0.71224100  0.46423400  0.93750000  1
  C  555  1  0.75538950  0.54054500  0.03382700  1
  C  705  1  0.14289550  0.12496100  0.84205200  1
  C  706  1  0.10546900  0.12889100  0.81395400  1
  C  707  1  0.10517550  0.16420800  0.81379100  1
  C  708  1  0.14230150  0.19655050  0.84175600  1
  C  709  1  0.18048450  0.19384100  0.87135300  1
  C  712  1  0.18079300  0.15759150  0.87147600  1
  C  713  1  0.21983750  0.22851500  0.90179900  1
  C  717  1  0.22048000  0.15382550  0.90198000  1
  C  723  1  0.70542250  0.19309300  0.84203100  1
  C  724  1  0.71471500  0.16105000  0.81390300  1
  C  725  1  0.71485650  0.12557550  0.81375100  1
  C  726  1  0.70575250  0.12122700  0.84176700  1
  C  727  1  0.69715950  0.15353000  0.87135900  1
  C  730  1  0.69695950  0.18989350  0.87146600  1
  C  731  1  0.68827150  0.14930950  0.90182200  1
  C  735  1  0.68778450  0.22416850  0.90197700  1
  C  741  1  0.20846350  0.12758300  0.34187600  1
  C  742  1  0.17636400  0.09023150  0.31386600  1
  C  743  1  0.14096200  0.09009200  0.31385800  1
  C  744  1  0.13672400  0.12729700  0.34187400  1
  C  745  1  0.16909750  0.16541000  0.37138200  1
  C  748  1  0.20539500  0.16555800  0.37135400  1
  C  749  1  0.16501050  0.20484200  0.40188700  1
  C  753  1  0.23973200  0.20517200  0.40176500  1
  C  759  1  0.13969150  0.69035050  0.34191000  1
  C  760  1  0.14376650  0.69970150  0.31390200  1
  C  761  1  0.17915550  0.69984100  0.31388400  1
  C  762  1  0.21141800  0.69064800  0.34188900  1
  C  763  1  0.20854650  0.68199450  0.37136200  1
  C  766  1  0.17222700  0.68181200  0.37134700  1
  C  767  1  0.24313000  0.67303200  0.40182900  1
  C  771  1  0.16829900  0.67256900  0.40173100  1
  C  777  1  0.87013950  0.78601000  0.17065700  1
  C  778  1  0.90733800  0.81826550  0.19865500  1
  C  779  1  0.90717950  0.85366300  0.19865300  1
  C  780  1  0.86981950  0.85775700  0.17067300  1
  C  781  1  0.83184800  0.82520700  0.14121200  1
  C  784  1  0.83201550  0.78887650  0.14117300  1
  C  785  1  0.79221950  0.82913650  0.11083200  1
  C  789  1  0.79258950  0.75428100  0.11068400  1
  C  795  1  0.30689800  0.86069100  0.17072300  1
  C  796  1  0.29782550  0.85649100  0.19883600  1
  C  797  1  0.29798450  0.82109100  0.19883600  1
  C  798  1  0.30724450  0.78896500  0.17074500  1
  C  799  1  0.31565500  0.79201000  0.14119900  1
  C  802  1  0.31544500  0.82830050  0.14115800  1
  C  803  1  0.32479750  0.75765450  0.11072600  1
  C  807  1  0.32426700  0.83235850  0.11056900  1
  C  813  1  0.80091100  0.29172300  0.67084000  1
  C  814  1  0.83329750  0.28265150  0.69888300  1
  C  815  1  0.86861800  0.28280250  0.69873100  1
  C  816  1  0.87251300  0.29206800  0.67057300  1
  C  817  1  0.83983950  0.30045150  0.64107500  1
  C  820  1  0.80358150  0.30023600  0.64117800  1
  C  821  1  0.84356650  0.30956600  0.61050600  1
  C  825  1  0.76885700  0.30903800  0.61064700  1
  C  831  1  0.87614200  0.85519200  0.67073300  1
  C  832  1  0.87177550  0.89231150  0.69871700  1
  C  833  1  0.83630450  0.89200850  0.69857300  1
  C  834  1  0.80429100  0.85457650  0.67049300  1
  C  835  1  0.80751400  0.81667750  0.64109600  1
  C  838  1  0.84387300  0.81699300  0.64119000  1
  C  839  1  0.77327500  0.77697750  0.61064200  1
  C  843  1  0.84811950  0.77764450  0.61077000  1
  H  7  1  0.09697850  0.36969900  0.82644200  1
  H  8  1  0.07556250  0.24241500  0.74141800  1
  H  9  1  0.16583400  0.31145750  0.88823500  1
  H  16  1  0.01735350  0.32440850  0.77149500  1
  H  17  1  0.94400050  0.27785700  0.62719600  1
  H  18  1  0.06521550  0.27329650  0.69022200  1
  H  23  1  0.97436950  0.25760000  0.58378000  1
  H  24  1  0.11965400  0.21061300  0.77749800  1
  H  25  1  0.16426550  0.38039000  0.93621100  1
  H  26  1  0.95025300  0.33425500  0.73577400  1
  H  33  1  0.73575650  0.93278350  0.82643400  1
  H  34  1  0.67207200  0.97505950  0.74143300  1
  H  35  1  0.72863400  0.05279100  0.88825600  1
  H  42  1  0.76041650  0.92317500  0.77148700  1
  H  43  1  0.68946450  0.82541100  0.62719600  1
  H  44  1  0.63127350  0.89296100  0.69024200  1
  H  49  1  0.61567750  0.80221750  0.58379900  1
  H  50  1  0.66398700  0.04292500  0.77757000  1
  H  51  1  0.77823350  0.03183450  0.93620800  1
  H  52  1  0.79181750  0.87769250  0.73576900  1
  H  59  1  0.94830250  0.08240050  0.32662900  1
  H  60  1  0.99069850  0.06103300  0.24173400  1
  H  61  1  0.06829550  0.15144650  0.38852200  1
  H  68  1  0.93886900  0.00278350  0.27181900  1
  H  69  1  0.84117150  0.92927300  0.12749700  1
  H  70  1  0.90854200  0.05052850  0.19041500  1
  H  75  1  0.81785450  0.95964250  0.08406800  1
  H  76  1  0.05852950  0.10556100  0.27796800  1
  H  77  1  0.04726700  0.14993650  0.43646600  1
  H  78  1  0.89376200  0.93560700  0.23623300  1
  H  85  1  0.38462600  0.72021300  0.32662700  1
  H  86  1  0.25730600  0.65680050  0.24171500  1
  H  87  1  0.32646350  0.71310950  0.38848700  1
  H  94  1  0.33931700  0.74506600  0.27182800  1
  H  95  1  0.29270900  0.67423050  0.12750800  1
  H  96  1  0.28814150  0.61591950  0.19041300  1
  H  101  1  0.27255250  0.60043300  0.08408400  1
  H  102  1  0.22565950  0.64856600  0.27790800  1
  H  103  1  0.39546800  0.76249800  0.43646800  1
  H  104  1  0.34896550  0.77660000  0.23623000  1
  H  215  1  0.91507500  0.61284500  0.18593300  1
  H  216  1  0.93641800  0.74013250  0.27080600  1
  H  217  1  0.84602950  0.67093250  0.12401300  1
  H  224  1  0.99469000  0.65822000  0.24077100  1
  H  225  1  0.06817250  0.70489700  0.38511100  1
  H  226  1  0.94691150  0.70933300  0.32213500  1
  H  231  1  0.03774800  0.72497100  0.42848700  1
  H  232  1  0.89190550  0.77172050  0.23456700  1
  H  233  1  0.84753550  0.60195800  0.07606800  1
  H  234  1  0.06185500  0.64866050  0.27639900  1
  H  241  1  0.27709950  0.04905450  0.18592800  1
  H  242  1  0.34075050  0.00666100  0.27080700  1
  H  243  1  0.28435150  0.92910000  0.12401100  1
  H  250  1  0.25235000  0.05850750  0.24075400  1
  H  251  1  0.32318600  0.15617200  0.38508700  1
  H  252  1  0.38149350  0.08877950  0.32213400  1
  H  257  1  0.39699000  0.17947800  0.42849000  1
  H  258  1  0.34916950  0.93888000  0.23452600  1
  H  259  1  0.23482900  0.95010150  0.07606800  1
  H  260  1  0.22080150  0.10367900  0.27636200  1
  H  267  1  0.06464450  0.90053850  0.68614900  1
  H  268  1  0.02233950  0.92185950  0.77111500  1
  H  269  1  0.94459400  0.83166250  0.62427600  1
  H  276  1  0.07431050  0.98012550  0.74110700  1
  H  277  1  0.17202150  0.05346350  0.88542200  1
  H  278  1  0.10441300  0.93224000  0.82234900  1
  H  283  1  0.19514300  0.02309350  0.92883600  1
  H  284  1  0.95444100  0.87771700  0.73497100  1
  H  285  1  0.96559200  0.83332850  0.57637100  1
  H  286  1  0.11987750  0.04722950  0.77685200  1
  H  293  1  0.62776850  0.26161400  0.68613100  1
  H  294  1  0.75503700  0.32528950  0.77113300  1
  H  295  1  0.68596950  0.26871400  0.62431200  1
  H  302  1  0.67304800  0.23697850  0.74109300  1
  H  303  1  0.71962250  0.30796700  0.88540100  1
  H  304  1  0.72417550  0.36611600  0.82233200  1
  H  309  1  0.73985700  0.38175550  0.92878100  1
  H  310  1  0.78677100  0.33338750  0.73501400  1
  H  311  1  0.61705850  0.21912150  0.57635700  1
  H  312  1  0.66318700  0.20564250  0.77684400  1
  H  422  1  0.98777200  0.15679600  0.53146800  1
  H  423  1  0.97535100  0.12120100  0.45490900  1
  H  426  1  0.05545000  0.29763100  0.61013000  1
  H  427  1  0.02875550  0.30118500  0.56163900  1
  H  428  1  0.07736500  0.29313950  0.57985300  1
  H  430  1  0.01809350  0.22320100  0.44195500  1
  H  431  1  0.06139700  0.25723750  0.50063900  1
  H  432  1  0.01288150  0.26552650  0.48209700  1
  H  440  1  0.54996050  0.85071450  0.53147400  1
  H  441  1  0.48582300  0.80974300  0.45491300  1
  H  444  1  0.56095050  0.78854750  0.61014200  1
  H  445  1  0.53917850  0.73650200  0.56165600  1
  H  446  1  0.50876200  0.76273950  0.57985100  1
  H  448  1  0.43016100  0.69477000  0.44195300  1
  H  449  1  0.44552350  0.71941600  0.50063000  1
  H  450  1  0.47551900  0.69260650  0.48211400  1
  H  458  1  0.86635400  0.97265700  0.03152500  1
  H  459  1  0.82532550  0.96003850  0.95486900  1
  H  462  1  0.80431650  0.04070200  0.11023200  1
  H  463  1  0.75225500  0.01395200  0.06179900  1
  H  464  1  0.77847150  0.06247400  0.07979500  1
  H  466  1  0.71040900  0.00288500  0.94187000  1
  H  467  1  0.73509700  0.04629650  0.00049800  1
  H  468  1  0.70829050  0.99786750  0.98215500  1
  H  476  1  0.17145550  0.53490150  0.03152700  1
  H  477  1  0.13582100  0.47086250  0.95487300  1
  H  480  1  0.31218950  0.54552800  0.11023300  1
  H  481  1  0.31582500  0.52385000  0.06180500  1
  H  482  1  0.30758550  0.49331750  0.07978600  1
  H  484  1  0.23772450  0.41499550  0.94185900  1
  H  485  1  0.27165950  0.43020350  0.00048800  1
  H  486  1  0.28013750  0.46029400  0.98215500  1
  H  494  1  0.02483350  0.82608450  0.48108100  1
  H  495  1  0.03743750  0.86170250  0.55773100  1
  H  498  1  0.95664800  0.68535850  0.40228600  1
  H  499  1  0.98336050  0.68169400  0.45069600  1
  H  500  1  0.93486300  0.68996950  0.43271600  1
  H  502  1  0.99444550  0.75977950  0.57064000  1
  H  503  1  0.95103000  0.72587400  0.51200400  1
  H  504  1  0.99943600  0.71736300  0.53033700  1
  H  512  1  0.46253500  0.13097550  0.48106500  1
  H  513  1  0.52658550  0.17201300  0.55771200  1
  H  516  1  0.45187300  0.19293100  0.40227900  1
  H  517  1  0.47355500  0.24500150  0.45069400  1
  H  518  1  0.50408100  0.21877050  0.43270700  1
  H  520  1  0.58242400  0.28688200  0.57063100  1
  H  521  1  0.56720500  0.26216250  0.51199700  1
  H  522  1  0.53711850  0.28898050  0.53032800  1
  H  530  1  0.14665500  0.00963000  0.98109800  1
  H  531  1  0.18761400  0.02202950  0.05764500  1
  H  534  1  0.20883750  0.94198950  0.90243400  1
  H  535  1  0.26088200  0.96868300  0.95093200  1
  H  536  1  0.23462200  0.92006100  0.93269600  1
  H  538  1  0.30257300  0.97930000  0.07058900  1
  H  539  1  0.27792850  0.93600650  0.01189900  1
  H  540  1  0.30475600  0.98453100  0.03045800  1
  H  548  1  0.84071500  0.44744100  0.98111800  1
  H  549  1  0.87630300  0.51159050  0.05766200  1
  H  552  1  0.69988850  0.43648150  0.90240800  1
  H  553  1  0.69631500  0.45828400  0.95088700  1
  H  554  1  0.70438550  0.48867450  0.93267800  1
  H  556  1  0.77429900  0.56730750  0.07057200  1
  H  557  1  0.74028050  0.55192600  0.01188600  1
  H  558  1  0.73196650  0.52195650  0.03042000  1
  H  710  1  0.07742050  0.16651750  0.79371800  1
  H  711  1  0.07792100  0.10623200  0.79391500  1
  H  714  1  0.21573900  0.25424400  0.89848000  1
  H  715  1  0.24108450  0.21736900  0.89228900  1
  H  716  1  0.23423700  0.24081450  0.93895500  1
  H  718  1  0.21684300  0.12485850  0.89890900  1
  H  719  1  0.23486150  0.17876650  0.93910000  1
  H  720  1  0.24154150  0.15567000  0.89230600  1
  H  728  1  0.72252650  0.10318500  0.79366700  1
  H  729  1  0.72220600  0.16366100  0.79384600  1
  H  732  1  0.68906450  0.12026950  0.89851800  1
  H  733  1  0.65751450  0.15094200  0.89231800  1
  H  734  1  0.71103100  0.17417500  0.93897500  1
  H  736  1  0.68834000  0.25006050  0.89889800  1
  H  737  1  0.71053650  0.23635650  0.93910000  1
  H  738  1  0.65705850  0.21265200  0.89232200  1
  H  746  1  0.11852100  0.06239100  0.29383400  1
  H  747  1  0.17889000  0.06262600  0.29380500  1
  H  750  1  0.13601250  0.20085100  0.39868800  1
  H  751  1  0.16665150  0.22604650  0.39232600  1
  H  752  1  0.18993150  0.21923550  0.43902200  1
  H  754  1  0.26556000  0.20142750  0.39858000  1
  H  755  1  0.25199950  0.21959050  0.43891700  1
  H  756  1  0.22825100  0.22625000  0.39210800  1
  H  764  1  0.18157300  0.70754100  0.29387700  1
  H  765  1  0.12118100  0.70726050  0.29386000  1
  H  768  1  0.26892900  0.67383400  0.39863000  1
  H  769  1  0.23191800  0.64225300  0.39223200  1
  H  770  1  0.25535200  0.69574550  0.43897000  1
  H  772  1  0.13929200  0.67312900  0.39855900  1
  H  773  1  0.19319100  0.69527450  0.43888300  1
  H  774  1  0.17010700  0.64181950  0.39203000  1
  H  782  1  0.93477950  0.87626500  0.21872700  1
  H  783  1  0.93504450  0.81585500  0.21867800  1
  H  786  1  0.79594950  0.85815350  0.11402400  1
  H  787  1  0.77116350  0.82730500  0.12051700  1
  H  788  1  0.77778350  0.80425900  0.07367700  1
  H  790  1  0.79659350  0.72847500  0.11386800  1
  H  791  1  0.77817200  0.74207700  0.07354900  1
  H  792  1  0.77139900  0.76547700  0.12027400  1
  H  800  1  0.29048900  0.81857650  0.21893700  1
  H  801  1  0.29016650  0.87893700  0.21888300  1
  H  804  1  0.32427500  0.73183450  0.11392700  1
  H  805  1  0.35550150  0.76911950  0.12030200  1
  H  806  1  0.30200650  0.74538050  0.07358300  1
  H  808  1  0.32345500  0.86135100  0.11376100  1
  H  809  1  0.30148200  0.80743250  0.07345000  1
  H  810  1  0.35501400  0.83070300  0.12005400  1
  H  818  1  0.89130050  0.27533600  0.71880700  1
  H  819  1  0.83100350  0.27498700  0.71897700  1
  H  822  1  0.87254300  0.30903400  0.61359500  1
  H  823  1  0.84166050  0.34027100  0.62009500  1
  H  824  1  0.81864100  0.28676850  0.57339100  1
  H  826  1  0.74312750  0.30824800  0.61396300  1
  H  827  1  0.75657600  0.28623400  0.57350700  1
  H  828  1  0.77994550  0.33977450  0.62007600  1
  H  836  1  0.83368700  0.91955200  0.71862500  1
  H  837  1  0.89415200  0.92006800  0.71878400  1
  H  840  1  0.74738750  0.78060350  0.61372600  1
  H  841  1  0.78483100  0.75594550  0.62034800  1
  H  842  1  0.76107450  0.76256700  0.57350900  1
  H  844  1  0.87715050  0.78175100  0.61405600  1
  H  845  1  0.82324150  0.76320550  0.57361100  1
  H  846  1  0.84653200  0.75642400  0.62032800  1
  N  433  1  0.99169300  0.15254000  0.41954000  1
  N  434  1  0.01963800  0.23433100  0.59572000  1
  N  451  1  0.43412200  0.74302700  0.41954000  1
  N  452  1  0.58235150  0.83743500  0.59572700  1
  N  469  1  0.75860100  0.97635750  0.91944000  1
  N  470  1  0.85313500  0.00472950  0.09582700  1
  N  487  1  0.16710350  0.41910300  0.91944000  1
  N  488  1  0.24897750  0.56712600  0.09582300  1
  N  505  1  0.02105650  0.83040150  0.59312100  1
  N  506  1  0.99271650  0.74856750  0.41674600  1
  N  523  1  0.57833250  0.23872200  0.59310700  1
  N  524  1  0.43029500  0.14416500  0.41673500  1
  N  541  1  0.25432550  0.00568450  0.09300800  1
  N  542  1  0.15994500  0.97778450  0.91684800  1
  N  559  1  0.84496600  0.56332000  0.09300900  1
  N  560  1  0.76318250  0.41505350  0.91685300  1
  N  721  1  0.14067150  0.09169100  0.84270500  1
  N  722  1  0.13940200  0.23049850  0.84265200  1
  N  739  1  0.70829050  0.22701500  0.84268100  1
  N  740  1  0.70953700  0.08817150  0.84265400  1
  N  757  1  0.24234350  0.12524500  0.34244800  1
  N  758  1  0.10371150  0.12451050  0.34285300  1
  N  775  1  0.10637750  0.69322550  0.34247400  1
  N  776  1  0.24540600  0.69440350  0.34285900  1
  N  793  1  0.87293750  0.75201750  0.16967600  1
  N  794  1  0.87212500  0.89107850  0.17012200  1
  N  811  1  0.30308950  0.89369100  0.16972800  1
  N  812  1  0.30436400  0.75508650  0.17018000  1
  N  829  1  0.76695800  0.28787600  0.66992300  1
  N  830  1  0.90578400  0.28920200  0.66992100  1
  N  847  1  0.90920350  0.85809100  0.66985400  1
  N  848  1  0.77037650  0.85677500  0.66986400  1
