# generated using pymatgen
data_H13C16(NO)2
_symmetry_space_group_name_H-M   'P 1'
_cell_length_a   15.34900000
_cell_length_b   15.34900000
_cell_length_c   46.04690000
_cell_angle_alpha   90.00000000
_cell_angle_beta   90.00000000
_cell_angle_gamma   120.00000000
_symmetry_Int_Tables_number   1
_chemical_formula_structural   H13C16(NO)2
_chemical_formula_sum   'H78 C96 N12 O12'
_cell_volume   9394.87922704
_cell_formula_units_Z   6
loop_
 _symmetry_equiv_pos_site_id
 _symmetry_equiv_pos_as_xyz
  1  'x, y, z'
loop_
 _atom_site_type_symbol
 _atom_site_label
 _atom_site_symmetry_multiplicity
 _atom_site_fract_x
 _atom_site_fract_y
 _atom_site_fract_z
 _atom_site_occupancy
  C  1  1  0.96908150  0.98407850  0.01303200  1
  C  2  1  0.98995400  0.02024800  0.04210500  1
  C  3  1  0.93179000  0.96434900  0.06626100  1
  C  4  1  0.84597150  0.86981650  0.06052500  1
  C  5  1  0.81945200  0.82946100  0.03224700  1
  C  6  1  0.88400850  0.88675150  0.00931900  1
  C  10  1  0.02933850  0.04099750  0.98875600  1
  C  11  1  0.12866400  0.12320700  0.99224700  1
  C  12  1  0.18861050  0.18343950  0.96893900  1
  C  13  1  0.14532150  0.15916250  0.94091400  1
  C  14  1  0.04888050  0.07594850  0.93540000  1
  C  15  1  0.99263150  0.01969850  0.95973100  1
  C  27  1  0.01863750  0.03400350  0.34636000  1
  C  28  1  0.03388550  0.01314050  0.37543900  1
  C  29  1  0.03637900  0.07151000  0.39956900  1
  C  30  1  0.02769350  0.15733350  0.39381100  1
  C  31  1  0.01374850  0.18372850  0.36552700  1
  C  32  1  0.00639600  0.11907200  0.34262000  1
  C  36  1  0.01528450  0.97369350  0.32209500  1
  C  37  1  0.99806100  0.87433500  0.32560500  1
  C  38  1  0.99820750  0.81427450  0.30230900  1
  C  39  1  0.01730200  0.85754100  0.27427900  1
  C  40  1  0.03068400  0.95402900  0.26874800  1
  C  41  1  0.03079700  0.01037600  0.29306400  1
  C  53  1  0.01905400  0.98424200  0.67971300  1
  C  54  1  0.98293400  0.96905900  0.70879200  1
  C  55  1  0.03882350  0.96670150  0.73293700  1
  C  56  1  0.13337600  0.97546200  0.72720000  1
  C  57  1  0.17372650  0.98934350  0.69892000  1
  C  58  1  0.11642950  0.99662250  0.67600000  1
  C  62  1  0.96206300  0.98744500  0.65543800  1
  C  63  1  0.87985100  0.00455700  0.65893000  1
  C  64  1  0.81960450  0.00426850  0.63562400  1
  C  65  1  0.84390800  0.98530100  0.60759800  1
  C  66  1  0.92706250  0.97197950  0.60208400  1
  C  67  1  0.98328550  0.97193050  0.62641300  1
  C  79  1  0.91610300  0.96283400  0.86550500  1
  C  80  1  0.91257900  0.04090500  0.84969300  1
  C  81  1  0.91078400  0.03774600  0.81899200  1
  C  82  1  0.91404200  0.96032200  0.80315700  1
  C  83  1  0.90242250  0.87534350  0.81899200  1
  C  85  1  0.90261750  0.87776950  0.84969600  1
  C  87  1  0.88411900  0.77971600  0.80520200  1
  C  91  1  0.90510850  0.12483150  0.86350100  1
  C  95  1  0.93912400  0.96935100  0.89564800  1
  C  96  1  0.93568400  0.97409400  0.77292100  1
  C  99  1  0.05077250  0.08699450  0.19879500  1
  C  100  1  0.13225250  0.09027850  0.18298500  1
  C  101  1  0.13105450  0.09234950  0.15228400  1
  C  102  1  0.05037900  0.08914900  0.13645600  1
  C  103  1  0.97717500  0.10101800  0.15229000  1
  C  105  1  0.97943600  0.10089100  0.18299600  1
  C  107  1  0.89988500  0.11935900  0.13849100  1
  C  111  1  0.22350150  0.09740650  0.19679500  1
  C  115  1  0.03420800  0.06383200  0.22892100  1
  C  116  1  0.04241800  0.06741500  0.10622600  1
  C  119  1  0.04024500  0.95249800  0.53217700  1
  C  120  1  0.96220050  0.87093550  0.51635000  1
  C  121  1  0.96540000  0.87237500  0.48564800  1
  C  122  1  0.04285500  0.95309900  0.46982500  1
  C  123  1  0.12778950  0.02643250  0.48568100  1
  C  125  1  0.12532350  0.02412050  0.51638400  1
  C  127  1  0.22342450  0.10385150  0.47191200  1
  C  131  1  0.87826200  0.77951300  0.53014000  1
  C  135  1  0.03374200  0.96896600  0.56231800  1
  C  136  1  0.02922350  0.96125050  0.43959500  1
  C  139  1  0.60112850  0.59727750  0.00146100  1
  C  140  1  0.60000700  0.51355000  0.01524700  1
  C  141  1  0.51144350  0.41825250  0.01406800  1
  C  142  1  0.42428600  0.40067500  0.99858700  1
  C  143  1  0.42450200  0.48535500  0.98570300  1
  C  145  1  0.51382350  0.57988150  0.98615800  1
  C  147  1  0.33266000  0.48521500  0.97483900  1
  C  151  1  0.69069700  0.51579200  0.02789500  1
  C  155  1  0.68265600  0.69766800  0.00335700  1
  C  156  1  0.34242800  0.30040100  0.99611900  1
  C  159  1  0.99972550  0.40187750  0.33474100  1
  C  160  1  0.91707300  0.40289500  0.34853800  1
  C  161  1  0.91030800  0.49143900  0.34738700  1
  C  162  1  0.97984200  0.57865400  0.33192000  1
  C  163  1  0.06421000  0.57846300  0.31896400  1
  C  165  1  0.06960900  0.48925300  0.31945700  1
  C  167  1  0.15599300  0.67039100  0.30817300  1
  C  171  1  0.82881700  0.31219700  0.36124900  1
  C  175  1  0.01883150  0.32049950  0.33660700  1
  C  176  1  0.96125900  0.66041200  0.32950100  1
  C  179  1  0.40587850  0.00310950  0.66812700  1
  C  180  1  0.48960150  0.08572150  0.68191300  1
  C  181  1  0.58489600  0.09244800  0.68073600  1
  C  182  1  0.60246550  0.02285250  0.66526100  1
  C  183  1  0.51779000  0.93839600  0.65237400  1
  C  185  1  0.42326500  0.93319800  0.65282300  1
  C  187  1  0.51791850  0.84667650  0.64152200  1
  C  191  1  0.48735550  0.17417150  0.69455700  1
  C  195  1  0.30549000  0.98422400  0.67001900  1
  C  196  1  0.70276150  0.04130650  0.66280200  1
  H  7  1  0.04395750  0.09279650  0.04591200  1
  H  8  1  0.87262050  0.85204150  0.98970900  1
  H  9  1  0.80156300  0.82853000  0.07755300  1
  H  16  1  0.15841000  0.14132200  0.01247800  1
  H  17  1  0.18697350  0.20194850  0.92368900  1
  H  18  1  0.91885900  0.96857700  0.95620000  1
  H  20  1  0.05319250  0.11011550  0.89336300  1
  H  22  1  0.30916050  0.30960450  0.95505000  1
  H  24  1  0.89789900  0.96115100  0.10829800  1
  H  26  1  0.70755300  0.69592000  0.04577700  1
  H  33  1  0.05260050  0.95925950  0.37925000  1
  H  34  1  0.98301200  0.13037600  0.32301200  1
  H  35  1  0.03093650  0.20184850  0.41082200  1
  H  42  1  0.98640900  0.84463900  0.34584500  1
  H  43  1  0.01843250  0.81585150  0.25706400  1
  H  44  1  0.05341200  0.08414300  0.28953700  1
  H  46  1  0.06059400  0.94962300  0.22672500  1
  H  48  1  0.00372100  0.69367900  0.28843000  1
  H  50  1  0.06737850  0.10570050  0.44157400  1
  H  52  1  0.99223350  0.29570750  0.37903900  1
  H  59  1  0.91031050  0.95025550  0.71259300  1
  H  60  1  0.15102850  0.01977150  0.65637000  1
  H  61  1  0.17465000  0.97227900  0.74421900  1
  H  68  1  0.86178650  0.01624650  0.67916200  1
  H  69  1  0.80109350  0.98412750  0.59037400  1
  H  70  1  0.03447650  0.94936550  0.62290200  1
  H  72  1  0.89295150  0.94223150  0.56004400  1
  H  74  1  0.69350400  0.99877600  0.62173800  1
  H  76  1  0.04206300  0.93595600  0.77495500  1
  H  78  1  0.30724050  0.01086750  0.71243200  1
  H  84  1  0.91501100  0.09798200  0.80810100  1
  H  86  1  0.90082850  0.81862150  0.86055700  1
  H  88  1  0.86981450  0.77692550  0.78194200  1
  H  89  1  0.81794550  0.71599050  0.81487500  1
  H  90  1  0.94899650  0.76986350  0.80871600  1
  H  92  1  0.89092400  0.11463900  0.88678600  1
  H  93  1  0.84271900  0.13010900  0.85397800  1
  H  94  1  0.97462100  0.19582300  0.85983300  1
  H  104  1  0.18682200  0.08769600  0.14139700  1
  H  106  1  0.92204000  0.10265000  0.19384100  1
  H  108  1  0.91137100  0.13358400  0.11523200  1
  H  109  1  0.90240950  0.18559550  0.14814900  1
  H  110  1  0.82512350  0.05452850  0.14202500  1
  H  112  1  0.22750550  0.11152450  0.22008400  1
  H  113  1  0.29128600  0.15969900  0.18728900  1
  H  114  1  0.22473750  0.02777550  0.19310700  1
  H  124  1  0.90517150  0.81640450  0.47475100  1
  H  126  1  0.18445300  0.08145200  0.52725800  1
  H  128  1  0.22627850  0.09241950  0.44865100  1
  H  129  1  0.28715850  0.10142750  0.48158900  1
  H  130  1  0.23320650  0.17854950  0.47544600  1
  H  132  1  0.88842800  0.77547500  0.55342500  1
  H  133  1  0.87299550  0.71186450  0.52060600  1
  H  134  1  0.80727350  0.77804350  0.52647200  1
  H  144  1  0.51374950  0.35849050  0.02315000  1
  H  146  1  0.51131900  0.63980200  0.97725600  1
  H  148  1  0.26312050  0.42077850  0.98250900  1
  H  149  1  0.33281600  0.48576400  0.95113900  1
  H  150  1  0.33085000  0.55169300  0.98248600  1
  H  152  1  0.76081350  0.58329050  0.02218600  1
  H  153  1  0.69741950  0.45240050  0.01988000  1
  H  154  1  0.68394450  0.51049950  0.05150800  1
  H  164  1  0.84837200  0.48917600  0.35655400  1
  H  166  1  0.13196150  0.49171750  0.31051200  1
  H  168  1  0.16106050  0.73986950  0.31588900  1
  H  169  1  0.15649400  0.67043800  0.28447300  1
  H  170  1  0.22425200  0.67214600  0.31582400  1
  H  172  1  0.82617700  0.24210400  0.35549200  1
  H  173  1  0.75859250  0.30544150  0.35332000  1
  H  174  1  0.83055900  0.31896400  0.38486400  1
  H  184  1  0.64465700  0.15452300  0.68981600  1
  H  186  1  0.36334500  0.87078100  0.64391900  1
  H  188  1  0.58232350  0.84154750  0.64921200  1
  H  189  1  0.51742650  0.84627750  0.61782200  1
  H  190  1  0.45141000  0.77840000  0.64916200  1
  H  192  1  0.41984600  0.17677200  0.68884800  1
  H  193  1  0.55073950  0.24428050  0.68653700  1
  H  194  1  0.49265900  0.17272400  0.71817000  1
  N  19  1  0.01374450  0.05709850  0.90738700  1
  N  21  1  0.28163450  0.26729950  0.97223100  1
  N  23  1  0.95208300  0.99822700  0.09436700  1
  N  25  1  0.73665450  0.73625950  0.02831700  1
  N  45  1  0.04707500  0.98916000  0.24073300  1
  N  47  1  0.98903050  0.72125250  0.30561700  1
  N  49  1  0.05016900  0.05140100  0.42767500  1
  N  51  1  0.00337200  0.26653100  0.36157700  1
  N  71  1  0.94596900  0.95578600  0.57406700  1
  N  73  1  0.73578500  0.01350000  0.63892000  1
  N  75  1  0.00492500  0.95306200  0.76104400  1
  N  77  1  0.26687900  0.99965100  0.69497400  1
  O  97  1  0.91505200  0.03831300  0.75821400  1
  O  98  1  0.91146350  0.88268450  0.91033300  1
  O  117  1  0.12720950  0.08789050  0.09151100  1
  O  118  1  0.97482550  0.09103650  0.24361000  1
  O  137  1  0.96481100  0.87628500  0.42494900  1
  O  138  1  0.12026300  0.02810000  0.57704900  1
  O  157  1  0.33833550  0.22955750  0.01460000  1
  O  158  1  0.68951900  0.76425700  0.98277400  1
  O  177  1  0.89490150  0.66478650  0.34807300  1
  O  178  1  0.07805700  0.31333700  0.31592100  1
  O  197  1  0.77348250  0.10778850  0.68135700  1
  O  198  1  0.23874650  0.92437950  0.64948300  1
