# generated using pymatgen
data_Cd2H14C24Br4N4O9
_symmetry_space_group_name_H-M   'P 1'
_cell_length_a   11.71698000
_cell_length_b   11.71605000
_cell_length_c   15.19947000
_cell_angle_alpha   109.70538000
_cell_angle_beta   109.67680000
_cell_angle_gamma   96.95140000
_symmetry_Int_Tables_number   1
_chemical_formula_structural   Cd2H14C24Br4N4O9
_chemical_formula_sum   'Cd4 H28 C48 Br8 N8 O18'
_cell_volume   1783.71355604
_cell_formula_units_Z   2
loop_
 _symmetry_equiv_pos_site_id
 _symmetry_equiv_pos_as_xyz
  1  'x, y, z'
loop_
 _atom_site_type_symbol
 _atom_site_label
 _atom_site_symmetry_multiplicity
 _atom_site_fract_x
 _atom_site_fract_y
 _atom_site_fract_z
 _atom_site_occupancy
  Cd  Cd1  1  0.99796000  0.73300000  0.71490000  1.0
  Cd  Cd2  1  0.26705000  0.00206000  0.78509000  1.0
  Cd  Cd3  1  0.00203000  0.26701000  0.28510000  1.0
  Cd  Cd4  1  0.73295000  0.99794000  0.21491000  1.0
  H  H1  1  0.05446000  0.00952000  0.81612000  1.0
  H  H2  1  0.53015000  0.02679000  0.31572000  1.0
  H  H3  1  0.15348000  0.88682000  0.07598000  1.0
  H  H4  1  0.48639000  0.89517000  0.01291000  1.0
  H  H5  1  0.65242000  0.68828000  0.11745000  1.0
  H  H6  1  0.75689000  0.55720000  0.36106000  1.0
  H  H7  1  0.82400000  0.95080000  0.41849000  1.0
  H  H8  1  0.99072000  0.94559000  0.68424000  1.0
  H  H9  1  0.97315000  0.46975000  0.18420000  1.0
  H  H10  1  0.11323000  0.84664000  0.42395000  1.0
  H  H11  1  0.10487000  0.51375000  0.48703000  1.0
  H  H12  1  0.31167000  0.34756000  0.38260000  1.0
  H  H13  1  0.44298000  0.24316000  0.13900000  1.0
  H  H14  1  0.04945000  0.17603000  0.08152000  1.0
  H  H15  1  0.94554000  0.99049000  0.18388000  1.0
  H  H16  1  0.46984000  0.97322000  0.68428000  1.0
  H  H17  1  0.84652000  0.11319000  0.92403000  1.0
  H  H18  1  0.51361000  0.10483000  0.98709000  1.0
  H  H19  1  0.34757000  0.31172000  0.88256000  1.0
  H  H20  1  0.24311000  0.44280000  0.63895000  1.0
  H  H21  1  0.17600000  0.04921000  0.58152000  1.0
  H  H22  1  0.00928000  0.05441000  0.31577000  1.0
  H  H23  1  0.02685000  0.53025000  0.81580000  1.0
  H  H24  1  0.88676000  0.15336000  0.57605000  1.0
  H  H25  1  0.89512000  0.48626000  0.51297000  1.0
  H  H26  1  0.68832000  0.65244000  0.61741000  1.0
  H  H27  1  0.55702000  0.75685000  0.86100000  1.0
  H  H28  1  0.95055000  0.82397000  0.91848000  1.0
  C  C1  1  0.46536000  0.98494000  0.23559000  1.0
  C  C2  1  0.33533000  0.96069000  0.20531000  1.0
  C  C3  1  0.25528000  0.90724000  0.10166000  1.0
  C  C4  1  0.31031000  0.88416000  0.03081000  1.0
  C  C5  1  0.44111000  0.91170000  0.06621000  1.0
  C  C6  1  0.23411000  0.83813000  0.91768000  1.0
  C  C7  1  0.69184000  0.70519000  0.19800000  1.0
  C  C8  1  0.69809000  0.60689000  0.23022000  1.0
  C  C9  1  0.75034000  0.63202000  0.33401000  1.0
  C  C10  1  0.79606000  0.75792000  0.40397000  1.0
  C  C11  1  0.78827000  0.85195000  0.36667000  1.0
  C  C12  1  0.85655000  0.79389000  0.51786000  1.0
  C  C13  1  0.01503000  0.53460000  0.26433000  1.0
  C  C14  1  0.03928000  0.66466000  0.29461000  1.0
  C  C15  1  0.09286000  0.74480000  0.39827000  1.0
  C  C16  1  0.11601000  0.68981000  0.46914000  1.0
  C  C17  1  0.08840000  0.55897000  0.43371000  1.0
  C  C18  1  0.16215000  0.76598000  0.58233000  1.0
  C  C19  1  0.29486000  0.30817000  0.30205000  1.0
  C  C20  1  0.39318000  0.30191000  0.26983000  1.0
  C  C21  1  0.36812000  0.24968000  0.16603000  1.0
  C  C22  1  0.24226000  0.20400000  0.09606000  1.0
  C  C23  1  0.14824000  0.21178000  0.13339000  1.0
  C  C24  1  0.20603000  0.14349000  0.98210000  1.0
  C  C25  1  0.53464000  0.01507000  0.76441000  1.0
  C  C26  1  0.66466000  0.03931000  0.79470000  1.0
  C  C27  1  0.74471000  0.09277000  0.89834000  1.0
  C  C28  1  0.68969000  0.11585000  0.96920000  1.0
  C  C29  1  0.55888000  0.08831000  0.93379000  1.0
  C  C30  1  0.76589000  0.16188000  0.08233000  1.0
  C  C31  1  0.30816000  0.29482000  0.80200000  1.0
  C  C32  1  0.30190000  0.39311000  0.76979000  1.0
  C  C33  1  0.24965000  0.36798000  0.66600000  1.0
  C  C34  1  0.20394000  0.24208000  0.59603000  1.0
  C  C35  1  0.21173000  0.14806000  0.63333000  1.0
  C  C36  1  0.14344000  0.20612000  0.48215000  1.0
  C  C37  1  0.98496000  0.46540000  0.73567000  1.0
  C  C38  1  0.96072000  0.33534000  0.70539000  1.0
  C  C39  1  0.90713000  0.25520000  0.60174000  1.0
  C  C40  1  0.88399000  0.31020000  0.53087000  1.0
  C  C41  1  0.91160000  0.44104000  0.56629000  1.0
  C  C42  1  0.83784000  0.23402000  0.41767000  1.0
  C  C43  1  0.70514000  0.69184000  0.69796000  1.0
  C  C44  1  0.60682000  0.69809000  0.73017000  1.0
  C  C45  1  0.63187000  0.75032000  0.83397000  1.0
  C  C46  1  0.75774000  0.79600000  0.90394000  1.0
  C  C47  1  0.85176000  0.78822000  0.86662000  1.0
  C  C48  1  0.79397000  0.85652000  0.01790000  1.0
  Br  Br1  1  0.27004000  0.00668000  0.30856000  1.0
  Br  Br2  1  0.63680000  0.43649000  0.12923000  1.0
  Br  Br3  1  0.99324000  0.72990000  0.19135000  1.0
  Br  Br4  1  0.56350000  0.36322000  0.37083000  1.0
  Br  Br5  1  0.72996000  0.99332000  0.69144000  1.0
  Br  Br6  1  0.36320000  0.56352000  0.87077000  1.0
  Br  Br7  1  0.00676000  0.27010000  0.80866000  1.0
  Br  Br8  1  0.43650000  0.63679000  0.62917000  1.0
  N  N1  1  0.51640000  0.95884000  0.16620000  1.0
  N  N2  1  0.73675000  0.82592000  0.26611000  1.0
  N  N3  1  0.04112000  0.48359000  0.33373000  1.0
  N  N4  1  0.17417000  0.26325000  0.23394000  1.0
  N  N5  1  0.48360000  0.04116000  0.83381000  1.0
  N  N6  1  0.26324000  0.17408000  0.73390000  1.0
  N  N7  1  0.95888000  0.51642000  0.66628000  1.0
  N  N8  1  0.82583000  0.73675000  0.76606000  1.0
  O  O1  1  0.11841000  0.78136000  0.88439000  1.0
  O  O2  1  0.29174000  0.86105000  0.86612000  1.0
  O  O3  1  0.89945000  0.91123000  0.57376000  1.0
  O  O4  1  0.86039000  0.70416000  0.54741000  1.0
  O  O5  1  0.21946000  0.88155000  0.61567000  1.0
  O  O6  1  0.13899000  0.70851000  0.63390000  1.0
  O  O7  1  0.08866000  0.10086000  0.92643000  1.0
  O  O8  1  0.29550000  0.13939000  0.95226000  1.0
  O  O9  1  0.88159000  0.21865000  0.11562000  1.0
  O  O10  1  0.70826000  0.13896000  0.13388000  1.0
  O  O11  1  0.10055000  0.08878000  0.42624000  1.0
  O  O12  1  0.13960000  0.29585000  0.45259000  1.0
  O  O13  1  0.78054000  0.11846000  0.38433000  1.0
  O  O14  1  0.86101000  0.29150000  0.36610000  1.0
  O  O15  1  0.91134000  0.89915000  0.07358000  1.0
  O  O16  1  0.70449000  0.86062000  0.04774000  1.0
  O  O17  1  0.05462000  0.94564000  0.75017000  1.0
  O  O18  1  0.94538000  0.05437000  0.24983000  1.0
