# generated using pymatgen
data_ZnH7C16S2N2ClO12
_symmetry_space_group_name_H-M   'P 1'
_cell_length_a   7.74195000
_cell_length_b   8.54650000
_cell_length_c   23.29208000
_cell_angle_alpha   89.30426000
_cell_angle_beta   85.88948000
_cell_angle_gamma   86.28026000
_symmetry_Int_Tables_number   1
_chemical_formula_structural   ZnH7C16S2N2ClO12
_chemical_formula_sum   'Zn2 H14 C32 S4 N4 Cl2 O24'
_cell_volume   1533.91093665
_cell_formula_units_Z   2
loop_
 _symmetry_equiv_pos_site_id
 _symmetry_equiv_pos_as_xyz
  1  'x, y, z'
loop_
 _atom_site_type_symbol
 _atom_site_label
 _atom_site_symmetry_multiplicity
 _atom_site_fract_x
 _atom_site_fract_y
 _atom_site_fract_z
 _atom_site_occupancy
  Zn  Zn0  1  0.69307000  0.51800000  0.49339000  1
  Zn  Zn1  1  0.30693000  0.48200000  0.50661000  1
  H  H2  1  0.90599000  0.62227000  0.93716000  1
  H  H3  1  0.01403000  0.61731000  0.45683000  1
  H  H4  1  0.91562000  0.31221000  0.33056000  1
  H  H5  1  0.08399000  0.68971000  0.67076000  1
  H  H6  1  0.31381000  0.07632000  0.22267000  1
  H  H7  1  0.72658000  0.06481000  0.87159000  1
  H  H8  1  0.09275000  0.37062000  0.06278000  1
  H  H9  1  0.89354000  0.65104000  0.04103000  1
  H  H10  1  0.10505000  0.34215000  0.95888000  1
  H  H11  1  0.62422000  0.30711000  0.20623000  1
  H  H12  1  0.37435000  0.68793000  0.79433000  1
  H  H13  1  0.29715000  0.00967000  0.50609000  1
  H  H14  1  0.70286000  0.99033000  0.49403000  1
  H  H15  1  0.98597000  0.38269000  0.54317000  1
  C  C16  1  0.45404000  0.79486000  0.50129000  1
  C  C17  1  0.59147000  0.35535000  0.69657000  1
  C  C18  1  0.40618000  0.65583000  0.24285000  1
  C  C19  1  0.59240000  0.33997000  0.75675000  1
  C  C20  1  0.48534000  0.53210000  0.20884000  1
  C  C21  1  0.51280000  0.46272000  0.79109000  1
  C  C22  1  0.42975000  0.95839000  0.50208000  1
  C  C23  1  0.57026000  0.04161000  0.49803000  1
  C  C24  1  0.49784000  0.49949000  0.38959000  1
  C  C25  1  0.50220000  0.50029000  0.61041000  1
  C  C26  1  0.37088000  0.41637000  0.88408000  1
  C  C27  1  0.54597000  0.20514000  0.49875000  1
  C  C28  1  0.62749000  0.57734000  0.11582000  1
  C  C29  1  0.65420000  0.51497000  0.87642000  1
  C  C30  1  0.34444000  0.47820000  0.12352000  1
  C  C31  1  0.65126000  0.53025000  0.93607000  1
  C  C32  1  0.34744000  0.46270000  0.06386000  1
  C  C33  1  0.50305000  0.48794000  0.96995000  1
  C  C34  1  0.49563000  0.50505000  0.02998000  1
  C  C35  1  0.36186000  0.42933000  0.94391000  1
  C  C36  1  0.63671000  0.56389000  0.05600000  1
  C  C37  1  0.79095000  0.58893000  0.96240000  1
  C  C38  1  0.56595000  0.40012000  0.23383000  1
  C  C39  1  0.20777000  0.40398000  0.03754000  1
  C  C40  1  0.78371000  0.60566000  0.02190000  1
  C  C41  1  0.21492000  0.38744000  0.97802000  1
  C  C42  1  0.43281000  0.59559000  0.76647000  1
  C  C43  1  0.57040000  0.38659000  0.29305000  1
  C  C44  1  0.42962000  0.61101000  0.70726000  1
  C  C45  1  0.49110000  0.50846000  0.32769000  1
  C  C46  1  0.50906000  0.48998000  0.67228000  1
  C  C47  1  0.40813000  0.64225000  0.30302000  1
  S  S48  1  0.66881000  0.21326000  0.32251000  1
  S  S49  1  0.33271000  0.78560000  0.67824000  1
  S  S50  1  0.30454000  0.82612000  0.21154000  1
  S  S51  1  0.69388000  0.16911000  0.78773000  1
  N  N52  1  0.51528000  0.45917000  0.85201000  1
  N  N53  1  0.48317000  0.53443000  0.14789000  1
  N  N54  1  0.04967000  0.45795000  0.51544000  1
  N  N55  1  0.95033000  0.54205000  0.48456000  1
  Cl  Cl56  1  0.30918000  0.79322000  0.34814000  1
  Cl  Cl57  1  0.69105000  0.20570000  0.65097000  1
  O  O58  1  0.61075000  0.73857000  0.49621000  1
  O  O59  1  0.76160000  0.63140000  0.14198000  1
  O  O60  1  0.79331000  0.55692000  0.84284000  1
  O  O61  1  0.20543000  0.43614000  0.15712000  1
  O  O62  1  0.53828000  0.13908000  0.36329000  1
  O  O63  1  0.73018000  0.09798000  0.27602000  1
  O  O64  1  0.83910000  0.25698000  0.35888000  1
  O  O65  1  0.27388000  0.90090000  0.72498000  1
  O  O66  1  0.46332000  0.85884000  0.63721000  1
  O  O67  1  0.16088000  0.74396000  0.64227000  1
  O  O68  1  0.33386000  0.82996000  0.14709000  1
  O  O69  1  0.38925000  0.26143000  0.50379000  1
  O  O70  1  0.11284000  0.82917000  0.22767000  1
  O  O71  1  0.38414000  0.98660000  0.23814000  1
  O  O72  1  0.62365000  0.02605000  0.76337000  1
  O  O73  1  0.88565000  0.16694000  0.77183000  1
  O  O74  1  0.66113000  0.16197000  0.85984000  1
  O  O75  1  0.32161000  0.71162000  0.50611000  1
  O  O76  1  0.67839000  0.28838000  0.49389000  1
  O  O77  1  0.64460000  0.51352000  0.41121000  1
  O  O78  1  0.35540000  0.48648000  0.58879000  1
  O  O79  1  0.35545000  0.48657000  0.42110000  1
  O  O80  1  0.64455000  0.51343000  0.57890000  1
  O  O81  1  0.23654000  0.36285000  0.85788000  1
