# generated using pymatgen
data_Zn2H48C48N2O17
_symmetry_space_group_name_H-M   'P 1'
_cell_length_a   9.90559000
_cell_length_b   10.73990000
_cell_length_c   14.86718000
_cell_angle_alpha   91.29166000
_cell_angle_beta   90.29796000
_cell_angle_gamma   88.95147000
_symmetry_Int_Tables_number   1
_chemical_formula_structural   Zn2H48C48N2O17
_chemical_formula_sum   'Zn2 H48 C48 N2 O17'
_cell_volume   1580.96082547
_cell_formula_units_Z   1
loop_
 _symmetry_equiv_pos_site_id
 _symmetry_equiv_pos_as_xyz
  1  'x, y, z'
loop_
 _atom_site_type_symbol
 _atom_site_label
 _atom_site_symmetry_multiplicity
 _atom_site_fract_x
 _atom_site_fract_y
 _atom_site_fract_z
 _atom_site_occupancy
  Zn  Zn0  1  0.34687000  0.50002000  0.50001000  1
  Zn  Zn1  1  0.65313000  0.49998000  0.49999000  1
  H  H2  1  0.70064000  0.87835000  0.44958000  1
  H  H3  1  0.22245000  0.13158000  0.46725000  1
  H  H4  1  0.12598000  0.62293000  0.61064000  1
  H  H5  1  0.12055000  0.29800000  0.33250000  1
  H  H6  1  0.87802000  0.29611000  0.33428000  1
  H  H7  1  0.49814000  0.30411000  0.22392000  1
  H  H8  1  0.63577000  0.72597000  0.69299000  1
  H  H9  1  0.65141000  0.77281000  0.81168000  1
  H  H10  1  0.57066000  0.87249000  0.73190000  1
  H  H11  1  0.09197000  0.93645000  0.42233000  1
  H  H12  1  0.26431000  0.91297000  0.38566000  1
  H  H13  1  0.17752000  0.79220000  0.44434000  1
  H  H14  1  0.15101000  0.81422000  0.72172000  1
  H  H15  1  0.29056000  0.91595000  0.70854000  1
  H  H16  1  0.28551000  0.76643000  0.64802000  1
  H  H17  1  0.07416000  0.14282000  0.61380000  1
  H  H18  1  0.22776000  0.12525000  0.67819000  1
  H  H19  1  0.20154000  0.25893000  0.60944000  1
  H  H20  1  0.81881000  0.61591000  0.76625000  1
  H  H21  1  0.99299000  0.62372000  0.73788000  1
  H  H22  1  0.89859000  0.48106000  0.71701000  1
  H  H23  1  0.19594000  0.66215000  0.31818000  1
  H  H24  1  0.03744000  0.62659000  0.36876000  1
  H  H25  1  0.04843000  0.64532000  0.24971000  1
  H  H26  1  0.77425000  0.36657000  0.20262000  1
  H  H27  1  0.93995000  0.42613000  0.17584000  1
  H  H28  1  0.79276000  0.52546000  0.17089000  1
  H  H29  1  0.61943000  0.21120000  0.80391000  1
  H  H30  1  0.46555000  0.21756000  0.73613000  1
  H  H31  1  0.61780000  0.29127000  0.70252000  1
  H  H32  1  0.25893000  0.24596000  0.84602000  1
  H  H33  1  0.23285000  0.16007000  0.94900000  1
  H  H34  1  0.26817000  0.07966000  0.84438000  1
  H  H35  1  0.38331000  0.14359000  0.13756000  1
  H  H36  1  0.46793000  0.06659000  0.04512000  1
  H  H37  1  0.56638000  0.13779000  0.13173000  1
  H  H38  1  0.61149000  0.86193000  0.27805000  1
  H  H39  1  0.65004000  0.78587000  0.17258000  1
  H  H40  1  0.68269000  0.70730000  0.27830000  1
  H  H41  1  0.22850000  0.75164000  0.17136000  1
  H  H42  1  0.17979000  0.82743000  0.06795000  1
  H  H43  1  0.22437000  0.91809000  0.16621000  1
  H  H44  1  0.28916000  0.82662000  0.86358000  1
  H  H45  1  0.32441000  0.91620000  0.96115000  1
  H  H46  1  0.45639000  0.89230000  0.88325000  1
  H  H47  1  0.87415000  0.00571000  0.51070000  1
  H  H48  1  0.82328000  0.15198000  0.56695000  1
  H  H49  1  0.93148000  0.15080000  0.47041000  1
  C  C50  1  0.50145000  0.26032000  0.49983000  1
  C  C51  1  0.45013000  0.61603000  0.90824000  1
  C  C52  1  0.46119000  0.27294000  0.95049000  1
  C  C53  1  0.46988000  0.27141000  0.04448000  1
  C  C54  1  0.47568000  0.38582000  0.09278000  1
  C  C55  1  0.46219000  0.50043000  0.04757000  1
  C  C56  1  0.45285000  0.61470000  0.09685000  1
  C  C57  1  0.41535000  0.72483000  0.05270000  1
  C  C58  1  0.41410000  0.72674000  0.95827000  1
  C  C59  1  0.49014000  0.38875000  0.18585000  1
  C  C60  1  0.49550000  0.50161000  0.23211000  1
  C  C61  1  0.49940000  0.49977000  0.32731000  1
  C  C62  1  0.47871000  0.61499000  0.18973000  1
  C  C63  1  0.39779000  0.06898000  0.54468000  1
  C  C64  1  0.50652000  0.12880000  0.50684000  1
  C  C65  1  0.62255000  0.05983000  0.48021000  1
  C  C66  1  0.61615000  0.93120000  0.47788000  1
  C  C67  1  0.49876000  0.87203000  0.50501000  1
  C  C68  1  0.39293000  0.94173000  0.54438000  1
  C  C69  1  0.23945000  0.94536000  0.53133000  1
  C  C70  1  0.24896000  0.08813000  0.53248000  1
  C  C71  1  0.93071000  0.41834000  0.44607000  1
  C  C72  1  0.49868000  0.73983000  0.50056000  1
  C  C73  1  0.92714000  0.56457000  0.56449000  1
  C  C74  1  0.07163000  0.56709000  0.56224000  1
  C  C75  1  0.07191000  0.41790000  0.44665000  1
  C  C76  1  0.07660000  0.39228000  0.34687000  1
  C  C77  1  0.92108000  0.39017000  0.34693000  1
  C  C78  1  0.50021000  0.50187000  0.67295000  1
  C  C79  1  0.47179000  0.61488000  0.81467000  1
  C  C80  1  0.49930000  0.50174000  0.76908000  1
  C  C81  1  0.50711000  0.38761000  0.81262000  1
  C  C82  1  0.47775000  0.38614000  0.90500000  1
  C  C83  1  0.46254000  0.50100000  0.95347000  1
  C  C84  1  0.58562000  0.77376000  0.75065000  1
  C  C85  1  0.19130000  0.89378000  0.43994000  1
  C  C86  1  0.22524000  0.84786000  0.67273000  1
  C  C87  1  0.18458000  0.15746000  0.61358000  1
  C  C88  1  0.89478000  0.58487000  0.71586000  1
  C  C89  1  0.10232000  0.60838000  0.30927000  1
  C  C90  1  0.84127000  0.44832000  0.20832000  1
  C  C91  1  0.55391000  0.27050000  0.76102000  1
  C  C92  1  0.29172000  0.16383000  0.88558000  1
  C  C93  1  0.47165000  0.14799000  0.09212000  1
  C  C94  1  0.61235000  0.77053000  0.24182000  1
  C  C95  1  0.24845000  0.83119000  0.12737000  1
  C  C96  1  0.36933000  0.84639000  0.91386000  1
  C  C97  1  0.84406000  0.10478000  0.50087000  1
  N  N98  1  0.85720000  0.49914000  0.49939000  1
  N  N99  1  0.14285000  0.49918000  0.49939000  1
  O  O100  1  0.38531000  0.31679000  0.50001000  1
  O  O101  1  0.61465000  0.31676000  0.50000000  1
  O  O102  1  0.38532000  0.49999000  0.36785000  1
  O  O103  1  0.61466000  0.49995000  0.36784000  1
  O  O104  1  0.38535000  0.68324000  0.50000000  1
  O  O105  1  0.61469000  0.68321000  0.49999000  1
  O  O106  1  0.38534000  0.50005000  0.63216000  1
  O  O107  1  0.61468000  0.50001000  0.63215000  1
  O  O108  1  0.45786000  0.72243000  0.76564000  1
  O  O109  1  0.15444000  0.90400000  0.60158000  1
  O  O110  1  0.85628000  0.62989000  0.63059000  1
  O  O111  1  0.13862000  0.48196000  0.29171000  1
  O  O112  1  0.85822000  0.48729000  0.29888000  1
  O  O113  1  0.43180000  0.16386000  0.90368000  1
  O  O114  1  0.47991000  0.72447000  0.24087000  1
  O  O115  1  0.38532000  0.83316000  0.10152000  1
  O  O116  1  0.73232000  0.11652000  0.44228000  1
