# generated using pymatgen
data_H15(C4N)4
_symmetry_space_group_name_H-M   'P 1'
_cell_length_a   30.18565000
_cell_length_b   30.18560000
_cell_length_c   38.16720000
_cell_angle_alpha   90.00000000
_cell_angle_beta   90.00000000
_cell_angle_gamma   119.99983562
_symmetry_Int_Tables_number   1
_chemical_formula_structural   H15(C4N)4
_chemical_formula_sum   'H180 C192 N48'
_cell_volume   30117.71342661
_cell_formula_units_Z   12
loop_
 _symmetry_equiv_pos_site_id
 _symmetry_equiv_pos_as_xyz
  1  'x, y, z'
loop_
 _atom_site_type_symbol
 _atom_site_label
 _atom_site_symmetry_multiplicity
 _atom_site_fract_x
 _atom_site_fract_y
 _atom_site_fract_z
 _atom_site_occupancy
  H  7  1  0.81160100  0.16440500  0.92742400  1
  H  9  1  0.79783400  0.15181500  0.03408200  1
  H  11  1  0.82028700  0.28761600  0.03250500  1
  H  12  1  0.96333200  0.35557000  0.95007500  1
  H  13  1  0.95971000  0.32458000  0.91423100  1
  H  16  1  0.79833400  0.65653900  0.59410200  1
  H  24  1  0.81086300  0.65535000  0.70075600  1
  H  26  1  0.82809800  0.54624200  0.59508400  1
  H  27  1  0.96959700  0.62903400  0.67601800  1
  H  28  1  0.96621700  0.65803200  0.71118400  1
  H  34  1  0.94328100  0.42023100  0.94950100  1
  H  36  1  0.91988400  0.43086400  0.07411400  1
  H  37  1  0.91850400  0.48828300  0.07056100  1
  H  39  1  0.88487200  0.37255200  0.03396100  1
  H  43  1  0.94751000  0.53247600  0.59637100  1
  H  45  1  0.89628700  0.45449800  0.71190200  1
  H  46  1  0.95411100  0.51066200  0.72382300  1
  H  47  1  0.95009200  0.45048700  0.72475600  1
  H  49  1  0.90664200  0.53394200  0.68623900  1
  H  53  1  0.95013500  0.68890600  0.87308200  1
  H  55  1  0.84321700  0.62215000  0.81126700  1
  H  56  1  0.85380400  0.64935000  0.85349200  1
  H  57  1  0.87650600  0.60708600  0.84245600  1
  H  59  1  0.86278900  0.69111000  0.76564400  1
  H  61  1  0.79606000  0.68441600  0.48064100  1
  H  62  1  0.81757500  0.73732200  0.45219200  1
  H  66  1  0.95377400  0.22534600  0.75562400  1
  H  68  1  0.84176200  0.16645700  0.81405200  1
  H  69  1  0.87322000  0.14493500  0.78567300  1
  H  70  1  0.85961600  0.19307900  0.77205900  1
  H  72  1  0.87423000  0.17683500  0.87018500  1
  H  73  1  0.78162600  0.55964100  0.59625800  1
  H  74  1  0.78590900  0.70667700  0.53677500  1
  H  75  1  0.76930200  0.67557200  0.43868600  1
  H  84  1  0.77407700  0.22806700  0.02970100  1
  H  85  1  0.67149900  0.13461600  0.92841300  1
  H  86  1  0.73139200  0.18104400  0.92955900  1
  H  87  1  0.61299100  0.99319500  0.00922000  1
  H  88  1  0.64523000  0.99644400  0.04444400  1
  H  99  1  0.73461500  0.55548500  0.69644100  1
  H  100  1  0.67508800  0.54220200  0.69924200  1
  H  101  1  0.60701900  0.61699000  0.61655600  1
  H  102  1  0.63804100  0.64430900  0.58073700  1
  H  111  1  0.63693100  0.83076200  0.26145000  1
  H  120  1  0.63710700  0.81701600  0.36823300  1
  H  123  1  0.53905600  0.79710800  0.36537900  1
  H  124  1  0.52456600  0.84279500  0.36701900  1
  H  125  1  0.52599300  0.69341200  0.26230900  1
  H  126  1  0.53791600  0.75249600  0.26525100  1
  H  127  1  0.60303800  0.62765700  0.34493800  1
  H  128  1  0.63232400  0.66012900  0.38000200  1
  H  129  1  0.60824200  0.98685700  0.28911200  1
  H  130  1  0.63748600  0.98508400  0.25372800  1
  H  135  1  0.51124600  0.96384000  0.36709800  1
  H  136  1  0.52301300  0.04411500  0.40394100  1
  H  139  1  0.54244300  0.53236900  0.61613900  1
  H  140  1  0.53186100  0.49849100  0.74076800  1
  H  142  1  0.59016500  0.52177800  0.70061200  1
  H  143  1  0.51734600  0.56123800  0.34640200  1
  H  144  1  0.50835100  0.45113400  0.37852100  1
  H  145  1  0.51239900  0.50896200  0.39139400  1
  H  147  1  0.53832700  0.01516600  0.92971500  1
  H  149  1  0.58062800  0.05606300  0.01958000  1
  H  155  1  0.69208500  0.01255800  0.20640800  1
  H  157  1  0.72393600  0.97321300  0.08996500  1
  H  159  1  0.67056900  0.86154300  0.14865700  1
  H  160  1  0.72551600  0.89456000  0.12213600  1
  H  161  1  0.66428100  0.87878700  0.10590800  1
  H  163  1  0.73222500  0.11947100  0.14459300  1
  H  164  1  0.74882300  0.10889100  0.18682300  1
  H  165  1  0.68385900  0.08616100  0.17577200  1
  H  167  1  0.78167300  0.09989700  0.09897500  1
  H  169  1  0.68807800  0.89381000  0.20449000  1
  H  175  1  0.67472700  0.71569400  0.54096500  1
  H  177  1  0.73714700  0.73755900  0.42224700  1
  H  179  1  0.60760300  0.75699700  0.48020000  1
  H  180  1  0.63843300  0.77559800  0.52123300  1
  H  181  1  0.59298500  0.71054000  0.51277800  1
  H  183  1  0.67126200  0.79972700  0.43244500  1
  H  185  1  0.51152600  0.06649700  0.04518600  1
  H  186  1  0.50985700  0.00868800  0.05716400  1
  H  187  1  0.42065400  0.14234100  0.36585900  1
  H  188  1  0.41645200  0.29118600  0.26174600  1
  H  195  1  0.43041600  0.01946700  0.28281100  1
  H  197  1  0.43587400  0.91651900  0.25045300  1
  H  198  1  0.49349200  0.97353300  0.23946500  1
  H  199  1  0.43436900  0.97172800  0.23779900  1
  H  201  1  0.46416800  0.04265700  0.40746000  1
  H  202  1  0.46616200  0.98648700  0.41433800  1
  H  204  1  0.44099300  0.07776500  0.36729500  1
  H  206  1  0.51287600  0.92323800  0.27710700  1
  H  212  1  0.43406300  0.52700200  0.58380800  1
  H  213  1  0.43341700  0.46937500  0.57278500  1
  H  214  1  0.49075600  0.52847500  0.57113400  1
  H  216  1  0.47443500  0.43969200  0.73724300  1
  H  217  1  0.47373900  0.49657500  0.74765800  1
  H  223  1  0.43017000  0.42435400  0.26306600  1
  H  226  1  0.45221800  0.45281300  0.39050800  1
  H  228  1  0.48023900  0.55032900  0.22226700  1
  H  229  1  0.42003000  0.49463400  0.22660000  1
  H  230  1  0.47496700  0.49071800  0.21538900  1
  H  232  1  0.50385500  0.60866600  0.26249000  1
  H  234  1  0.42882800  0.38204300  0.35292400  1
  H  241  1  0.45370300  0.01271000  0.05805300  1
  H  243  1  0.41235700  0.93924600  0.88890700  1
  H  244  1  0.46809000  0.93479500  0.89322200  1
  H  245  1  0.47194100  0.99363200  0.88204300  1
  H  246  1  0.96901100  0.48759200  0.54871700  1
  H  247  1  0.97608400  0.48899200  0.08100400  1
  H  248  1  0.40731900  0.18855500  0.36306800  1
  H  255  1  0.30616800  0.15110700  0.26077600  1
  H  264  1  0.30735100  0.16482500  0.36741500  1
  H  267  1  0.40302000  0.23130300  0.26290100  1
  H  268  1  0.33373100  0.34991400  0.34274200  1
  H  269  1  0.30473000  0.31752400  0.37790100  1
  H  270  1  0.34571800  0.99942500  0.28330400  1
  H  271  1  0.31840500  0.00304300  0.24744800  1
  H  282  1  0.13192400  0.81548700  0.92812600  1
  H  291  1  0.14567900  0.82940700  0.03489100  1
  H  294  1  0.16550700  0.75126100  0.03209600  1
  H  295  1  0.11982700  0.69108300  0.03372000  1
  H  296  1  0.26928400  0.84183200  0.92899500  1
  H  297  1  0.21020800  0.79466100  0.93195100  1
  H  298  1  0.33500600  0.98472700  0.01154200  1
  H  299  1  0.30245400  0.98150700  0.04658700  1
  H  300  1  0.97586200  0.63065900  0.95572700  1
  H  301  1  0.97765500  0.66167000  0.92033500  1
  H  312  1  0.14717600  0.32575100  0.59479600  1
  H  321  1  0.13329100  0.32557500  0.70153700  1
  H  324  1  0.21140400  0.42356000  0.69874900  1
  H  325  1  0.27158600  0.43806100  0.70038400  1
  H  326  1  0.12080000  0.43673700  0.59564800  1
  H  327  1  0.16796400  0.42482100  0.59858700  1
  H  328  1  0.97800200  0.35981500  0.67838600  1
  H  329  1  0.98124200  0.33047600  0.71339300  1
  H  330  1  0.33210500  0.35469700  0.62224600  1
  H  331  1  0.30133100  0.32570900  0.58676300  1
  H  339  1  0.99879900  0.55673100  0.03374400  1
  H  341  1  0.04629000  0.52862600  0.91717600  1
  H  342  1  0.98930400  0.52924200  0.90611800  1
  H  343  1  0.99109100  0.47191200  0.90449900  1
  H  345  1  0.03950300  0.59893400  0.94376600  1
  H  346  1  0.40597700  0.45149600  0.70041300  1
  H  348  1  0.36375200  0.44999000  0.61043500  1
  H  349  1  0.40142200  0.96540600  0.01304500  1
  H  351  1  0.35401000  0.90452800  0.92911800  1
  H  355  1  0.99736300  0.44547000  0.67975100  1
  H  357  1  0.02336000  0.48233100  0.55557900  1
  H  358  1  0.02788200  0.54254900  0.55987100  1
  H  360  1  0.05814100  0.45878700  0.59580700  1
  H  366  1  0.27364100  0.27035000  0.53979600  1
  H  368  1  0.20269000  0.23885000  0.42328200  1
  H  370  1  0.14438400  0.29219400  0.48199500  1
  H  371  1  0.12246700  0.23731900  0.45540400  1
  H  372  1  0.16800600  0.29858600  0.43926200  1
  H  374  1  0.34044300  0.23023800  0.47797600  1
  H  375  1  0.31313700  0.21351200  0.52016700  1
  H  376  1  0.35547400  0.27850300  0.50923300  1
  H  378  1  0.27157000  0.18098500  0.43233500  1
  H  380  1  0.15904200  0.27452700  0.53784400  1
  H  384  1  0.98951100  0.76005900  0.75662500  1
  H  386  1  0.10118200  0.81832800  0.81531800  1
  H  387  1  0.06819200  0.84028100  0.78879100  1
  H  388  1  0.08393000  0.79478700  0.77257100  1
  H  390  1  0.06891500  0.80360000  0.87115000  1
  H  396  1  0.24709500  0.96835700  0.20762100  1
  H  398  1  0.22512300  0.00891400  0.08893000  1
  H  400  1  0.27825400  0.12095500  0.14732800  1
  H  401  1  0.22531900  0.08953700  0.11890600  1
  H  402  1  0.28707200  0.10305700  0.10536300  1
  H  404  1  0.20581600  0.85995500  0.14683600  1
  H  405  1  0.18719500  0.87215100  0.18787100  1
  H  406  1  0.25226500  0.89179500  0.17942100  1
  H  408  1  0.16299300  0.88088100  0.09911400  1
  H  410  1  0.25604200  0.08853300  0.20346000  1
  H  414  1  0.99432300  0.28816900  0.87424900  1
  H  416  1  0.10267400  0.35525800  0.81342100  1
  H  417  1  0.09053900  0.32455200  0.85449400  1
  H  418  1  0.07080900  0.36989200  0.84597100  1
  H  420  1  0.08179400  0.29138300  0.76578400  1
  C  1  1  0.80557100  0.19999300  0.97377100  1
  C  2  1  0.82754400  0.19822000  0.94091400  1
  C  3  1  0.87231900  0.24055100  0.92665900  1
  C  4  1  0.89612500  0.28731800  0.94581000  1
  C  5  1  0.87279500  0.29261300  0.97686200  1
  C  6  1  0.82861500  0.24882400  0.99134100  1
  C  17  1  0.80816500  0.61594400  0.65392500  1
  C  18  1  0.83277600  0.59128100  0.63684300  1
  C  19  1  0.87547700  0.59039700  0.65294600  1
  C  20  1  0.89899200  0.62170000  0.68303700  1
  C  21  1  0.87356400  0.64309000  0.70188300  1
  C  22  1  0.82816900  0.63874500  0.68735700  1
  C  31  1  0.93841600  0.43470300  0.00283800  1
  C  32  1  0.95522300  0.47624000  0.02722000  1
  C  33  1  0.95656200  0.44833100  0.96805600  1
  C  35  1  0.94135000  0.47021300  0.06513500  1
  C  38  1  0.90374200  0.38196200  0.01071900  1
  C  40  1  0.95713400  0.51303100  0.61398000  1
  C  41  1  0.93973800  0.50888200  0.64889200  1
  C  42  1  0.95438000  0.48205400  0.67290000  1
  C  44  1  0.93795400  0.47389800  0.71039300  1
  C  48  1  0.91227700  0.53364400  0.65991000  1
  C  50  1  0.93115500  0.70324800  0.78765800  1
  C  51  1  0.92087500  0.68221500  0.82212900  1
  C  52  1  0.95963400  0.70348500  0.84831500  1
  C  54  1  0.87072300  0.63782000  0.83266400  1
  C  58  1  0.89330100  0.68760800  0.76127200  1
  C  60  1  0.78393400  0.70203600  0.46079900  1
  C  63  1  0.93383300  0.23621100  0.84202300  1
  C  64  1  0.92301100  0.21865700  0.80653500  1
  C  65  1  0.96237000  0.23953600  0.78064900  1
  C  67  1  0.87150300  0.17856500  0.79421000  1
  C  71  1  0.89780800  0.21435000  0.86991000  1
  C  76  1  0.76114300  0.15450900  0.98723800  1
  C  77  1  0.71185400  0.12993200  0.97017400  1
  C  78  1  0.66826300  0.08724700  0.98627900  1
  C  79  1  0.67604500  0.06372300  0.01637000  1
  C  80  1  0.72286800  0.08914300  0.03521100  1
  C  81  1  0.76391600  0.13454700  0.02069100  1
  C  91  1  0.76270600  0.61492400  0.64044300  1
  C  92  1  0.76450200  0.63864300  0.60756900  1
  C  93  1  0.72220200  0.64114600  0.59331300  1
  C  94  1  0.67542700  0.61820200  0.61245300  1
  C  95  1  0.67009900  0.58959000  0.64351300  1
  C  96  1  0.71386800  0.58918000  0.65800700  1
  C  105  1  0.59665000  0.82625500  0.30823900  1
  C  106  1  0.61969000  0.84729500  0.27500600  1
  C  107  1  0.62307100  0.89246800  0.26075500  1
  C  108  1  0.60085600  0.91672600  0.28010500  1
  C  109  1  0.56935200  0.89217700  0.30993100  1
  C  110  1  0.57084900  0.84954500  0.32552300  1
  C  113  1  0.59673900  0.78125000  0.32152000  1
  C  114  1  0.57186400  0.73241700  0.30391600  1
  C  115  1  0.57320300  0.68910400  0.31842500  1
  C  116  1  0.60264000  0.69521400  0.34918700  1
  C  117  1  0.62415800  0.74174100  0.36852100  1
  C  118  1  0.62017700  0.78334200  0.35455600  1
  C  137  1  0.52799700  0.51312300  0.66948900  1
  C  138  1  0.51435300  0.51759500  0.63470200  1
  C  141  1  0.58074500  0.53121700  0.67736400  1
  C  146  1  0.52248300  0.02296200  0.98222600  1
  C  148  1  0.57470500  0.05043400  0.99324800  1
  C  150  1  0.72543700  0.03155400  0.12099200  1
  C  151  1  0.71466100  0.04182300  0.15545800  1
  C  152  1  0.69718000  0.00306600  0.18164600  1
  C  153  1  0.68819900  0.95281700  0.17555100  1
  C  154  1  0.69759900  0.94232300  0.14059700  1
  C  156  1  0.71627200  0.98144500  0.11453000  1
  C  158  1  0.68895000  0.89144300  0.12899800  1
  C  162  1  0.72038700  0.09196300  0.16599100  1
  C  166  1  0.74764200  0.06941000  0.09460800  1
  C  168  1  0.67405200  0.91729400  0.20381700  1
  C  170  1  0.68419700  0.74404500  0.45456600  1
  C  171  1  0.66586500  0.73641700  0.48977100  1
  C  172  1  0.68741800  0.71883900  0.51572600  1
  C  173  1  0.72652000  0.70698200  0.50867800  1
  C  174  1  0.74395600  0.71358900  0.47316600  1
  C  176  1  0.72305600  0.73206700  0.44729500  1
  C  178  1  0.62396900  0.74555300  0.50137600  1
  C  182  1  0.66808600  0.76584300  0.42810300  1
  C  184  1  0.74840600  0.69281900  0.53655000  1
  C  189  1  0.44961400  0.02422800  0.33617400  1
  C  190  1  0.47433100  0.00741400  0.36056400  1
  C  191  1  0.49291900  0.97457400  0.34931300  1
  C  192  1  0.48899600  0.95745700  0.31434300  1
  C  193  1  0.46390700  0.97377400  0.29005300  1
  C  194  1  0.44515700  0.00613000  0.30138200  1
  C  196  1  0.45643000  0.95817900  0.25238400  1
  C  200  1  0.48210500  0.02123900  0.39848600  1
  C  203  1  0.43156100  0.05891500  0.34404200  1
  C  205  1  0.51258800  0.92884100  0.30344100  1
  C  207  1  0.48646700  0.48841300  0.69387900  1
  C  208  1  0.43503800  0.46984100  0.68263100  1
  C  209  1  0.42185100  0.47381200  0.64766600  1
  C  210  1  0.46325300  0.49889800  0.62337800  1
  C  211  1  0.45514600  0.50642200  0.58572000  1
  C  215  1  0.49251000  0.48060400  0.73179600  1
  C  218  1  0.49553300  0.54655000  0.29343800  1
  C  219  1  0.46929800  0.50495200  0.26928600  1
  C  220  1  0.44964600  0.45342400  0.28066800  1
  C  221  1  0.45385200  0.44019000  0.31557000  1
  C  222  1  0.48073000  0.48166900  0.33956400  1
  C  224  1  0.50082200  0.53292500  0.32806700  1
  C  225  1  0.48895700  0.47340900  0.37704400  1
  C  227  1  0.46092000  0.51103800  0.23148200  1
  C  231  1  0.51407500  0.59935300  0.28546800  1
  C  233  1  0.42910000  0.38796800  0.32659200  1
  C  235  1  0.41612700  0.95827200  0.96009000  1
  C  236  1  0.45772800  0.97367700  0.93593400  1
  C  237  1  0.50925700  0.00556300  0.94731500  1
  C  238  1  0.48100100  0.00834900  0.00622000  1
  C  239  1  0.42974900  0.97716900  0.99472100  1
  C  240  1  0.48925800  0.02482700  0.04370300  1
  C  242  1  0.45164900  0.95924700  0.89812000  1
  C  249  1  0.34780600  0.15712300  0.30710900  1
  C  250  1  0.32405500  0.13516600  0.27424900  1
  C  251  1  0.32160900  0.09039700  0.25998300  1
  C  252  1  0.34458200  0.06659000  0.27911700  1
  C  253  1  0.37318400  0.08988600  0.31018300  1
  C  254  1  0.37357200  0.13405500  0.32467900  1
  C  257  1  0.34676500  0.20155400  0.32059000  1
  C  258  1  0.37144900  0.25083900  0.30352000  1
  C  259  1  0.37233700  0.29441300  0.31963300  1
  C  260  1  0.34103700  0.28662400  0.34972700  1
  C  261  1  0.31962000  0.23979100  0.36855700  1
  C  262  1  0.32396300  0.19874300  0.35402400  1
  C  276  1  0.13643100  0.77969500  0.97490400  1
  C  277  1  0.11542900  0.78169400  0.94165500  1
  C  278  1  0.07024200  0.73991200  0.92741300  1
  C  279  1  0.04598900  0.69343000  0.94674700  1
  C  280  1  0.07052400  0.68647900  0.97658500  1
  C  281  1  0.11313500  0.73060400  0.99219200  1
  C  284  1  0.18144000  0.82478000  0.98818600  1
  C  285  1  0.23026300  0.84874600  0.97057000  1
  C  286  1  0.27357600  0.89340900  0.98507100  1
  C  287  1  0.26748000  0.91674500  0.01583600  1
  C  288  1  0.22095300  0.89173600  0.03516900  1
  C  289  1  0.17935000  0.84615100  0.02121200  1
  C  306  1  0.18299800  0.36609000  0.64155100  1
  C  307  1  0.18097500  0.34303600  0.60832100  1
  C  308  1  0.22277400  0.33969100  0.59404700  1
  C  309  1  0.26927200  0.36196700  0.61336200  1
  C  310  1  0.27621500  0.39339300  0.64323600  1
  C  311  1  0.23208200  0.39186200  0.65884600  1
  C  314  1  0.13789900  0.36598200  0.65484800  1
  C  315  1  0.11392800  0.39084800  0.63724400  1
  C  316  1  0.06927400  0.38949500  0.65176100  1
  C  317  1  0.04594900  0.36004600  0.68252100  1
  C  318  1  0.07095100  0.33850900  0.70183800  1
  C  319  1  0.11652000  0.34247900  0.68786300  1
  C  336  1  0.98809300  0.52766300  0.01596900  1
  C  337  1  0.00526200  0.54083900  0.98100600  1
  C  338  1  0.98896400  0.49942700  0.95672800  1
  C  340  1  0.00462300  0.50752800  0.91907300  1
  C  344  1  0.03388700  0.59304700  0.97010000  1
  C  347  1  0.36964100  0.45023100  0.63676700  1
  C  350  1  0.36332300  0.92403600  0.95210600  1
  C  352  1  0.00438800  0.46716100  0.62676300  1
  C  353  1  0.98899200  0.49335800  0.60260400  1
  C  354  1  0.98553400  0.46194400  0.66140600  1
  C  356  1  0.00340200  0.50166600  0.56478600  1
  C  359  1  0.03862900  0.44859700  0.61879600  1
  C  361  1  0.25945600  0.23723300  0.45433000  1
  C  362  1  0.28040000  0.24786800  0.48882600  1
  C  363  1  0.25911400  0.26533200  0.51501600  1
  C  364  1  0.21793100  0.27443400  0.50890000  1
  C  365  1  0.19809800  0.26512200  0.47393100  1
  C  367  1  0.21855200  0.24645700  0.44786100  1
  C  369  1  0.15592300  0.27385000  0.46232100  1
  C  373  1  0.32474100  0.24202800  0.49937900  1
  C  377  1  0.27506100  0.21499000  0.42794100  1
  C  379  1  0.19655800  0.28859800  0.53715200  1
  C  381  1  0.00989200  0.74472600  0.84221800  1
  C  382  1  0.02039800  0.76461200  0.80726100  1
  C  383  1  0.98127400  0.74417100  0.78119500  1
  C  385  1  0.07128300  0.80681700  0.79566000  1
  C  389  1  0.04541500  0.76609200  0.87048200  1
  C  391  1  0.21873400  0.94949000  0.12122200  1
  C  392  1  0.22635900  0.93878400  0.15642500  1
  C  393  1  0.24392400  0.97790100  0.18238700  1
  C  394  1  0.25576800  0.02886300  0.17535200  1
  C  395  1  0.24912300  0.03968800  0.13984500  1
  C  397  1  0.23065000  0.00031400  0.11397000  1
  C  399  1  0.26062800  0.09121000  0.12748900  1
  C  403  1  0.21724700  0.88775500  0.16801600  1
  C  407  1  0.19688000  0.91158200  0.09476500  1
  C  409  1  0.26991800  0.06490200  0.20322700  1
  C  411  1  0.01317800  0.27850500  0.78787300  1
  C  412  1  0.02388200  0.29692600  0.82305600  1
  C  413  1  0.98477400  0.27538900  0.84902700  1
  C  415  1  0.07489200  0.33891400  0.83461200  1
  C  419  1  0.05107700  0.29453100  0.76141100  1
  N  8  1  0.94231800  0.32693200  0.93485200  1
  N  10  1  0.80641400  0.25504100  0.02065100  1
  N  14  1  0.89405600  0.34164200  0.98957000  1
  N  15  1  0.89489600  0.24004900  0.89600300  1
  N  23  1  0.94794900  0.63461100  0.69211000  1
  N  25  1  0.81260500  0.56367400  0.60688500  1
  N  29  1  0.89505900  0.66570600  0.73273900  1
  N  30  1  0.89181200  0.55767600  0.64087500  1
  N  82  1  0.63997000  0.01479300  0.02549300  1
  N  83  1  0.70442100  0.15011000  0.94021800  1
  N  89  1  0.72398500  0.06765600  0.06607300  1
  N  90  1  0.61920100  0.07091500  0.97421700  1
  N  97  1  0.63587100  0.62485200  0.60148500  1
  N  98  1  0.70762800  0.56078400  0.68733400  1
  N  103  1  0.62105300  0.56183900  0.65620200  1
  N  104  1  0.72273200  0.66424500  0.56266400  1
  N  112  1  0.61352500  0.96595900  0.27219200  1
  N  119  1  0.61101200  0.65662900  0.35994800  1
  N  121  1  0.54286600  0.82824700  0.35518500  1
  N  122  1  0.54349500  0.72576800  0.27452100  1
  N  131  1  0.64658800  0.74232500  0.39940900  1
  N  132  1  0.54532400  0.63970200  0.30639700  1
  N  133  1  0.53648900  0.90813900  0.32237400  1
  N  134  1  0.64564400  0.91485700  0.22992300  1
  N  256  1  0.33801100  0.02042300  0.26811500  1
  N  263  1  0.32814400  0.32267600  0.35882100  1
  N  265  1  0.40196500  0.15622800  0.35400300  1
  N  266  1  0.39904200  0.25826400  0.27355400  1
  N  272  1  0.29698700  0.23864900  0.39941100  1
  N  273  1  0.40505100  0.34347300  0.30756300  1
  N  274  1  0.40094100  0.06860600  0.32288500  1
  N  275  1  0.29850900  0.06781700  0.22933300  1
  N  283  1  0.99676800  0.65684800  0.93881600  1
  N  290  1  0.30609500  0.96370700  0.02657800  1
  N  292  1  0.13441900  0.72391800  0.02186200  1
  N  293  1  0.23690800  0.82701500  0.94118100  1
  N  302  1  0.22037500  0.91357400  0.06606500  1
  N  303  1  0.32297800  0.91492900  0.97303600  1
  N  304  1  0.05456100  0.63765600  0.98902700  1
  N  305  1  0.04784900  0.74011500  0.89658300  1
  N  313  1  0.30586000  0.34938400  0.60534700  1
  N  320  1  0.99898000  0.35165100  0.69326000  1
  N  322  1  0.23874400  0.41978000  0.68853900  1
  N  323  1  0.13565400  0.41923200  0.60785700  1
  N  332  1  0.04909600  0.31605700  0.73272100  1
  N  333  1  0.04773400  0.41736200  0.63973500  1
  N  334  1  0.32503300  0.42625600  0.65568900  1
  N  335  1  0.22255300  0.31706800  0.56322700  1
