# generated using pymatgen
data_H5C10(NO)2
_symmetry_space_group_name_H-M   'P 1'
_cell_length_a   19.72310000
_cell_length_b   19.72310000
_cell_length_c   35.78950000
_cell_angle_alpha   90.00000000
_cell_angle_beta   90.00000000
_cell_angle_gamma   90.00000000
_symmetry_Int_Tables_number   1
_chemical_formula_structural   H5C10(NO)2
_chemical_formula_sum   'H80 C160 N32 O32'
_cell_volume   13922.13960817
_cell_formula_units_Z   16
loop_
 _symmetry_equiv_pos_site_id
 _symmetry_equiv_pos_as_xyz
  1  'x, y, z'
loop_
 _atom_site_type_symbol
 _atom_site_label
 _atom_site_symmetry_multiplicity
 _atom_site_fract_x
 _atom_site_fract_y
 _atom_site_fract_z
 _atom_site_occupancy
  C  1  1  0.14402100  0.09169000  0.14217700  1
  C  2  1  0.18817300  0.04923400  0.16267200  1
  C  3  1  0.18579400  0.04750900  0.20210400  1
  C  4  1  0.13979800  0.08996700  0.22128500  1
  C  5  1  0.09699900  0.13444800  0.20116600  1
  C  6  1  0.09841900  0.13469700  0.16156700  1
  C  9  1  0.14675700  0.09150900  0.10252400  1
  C  10  1  0.19074900  0.13579700  0.08290600  1
  C  11  1  0.19159900  0.13558500  0.04328400  1
  C  12  1  0.14966500  0.08986100  0.02340800  1
  C  13  1  0.10513200  0.04608500  0.04279100  1
  C  14  1  0.10351400  0.04783800  0.08224800  1
  C  23  1  0.64802000  0.09219900  0.64159100  1
  C  24  1  0.60355400  0.13504000  0.66163000  1
  C  25  1  0.60601400  0.13827700  0.70103000  1
  C  26  1  0.65240400  0.09693300  0.72065600  1
  C  27  1  0.69543700  0.05195900  0.70102500  1
  C  28  1  0.69392400  0.05020100  0.66143800  1
  C  31  1  0.64517600  0.09094100  0.60194300  1
  C  32  1  0.60102200  0.04611500  0.58280600  1
  C  33  1  0.59973900  0.04532600  0.54318800  1
  C  34  1  0.64134600  0.09066300  0.52283000  1
  C  35  1  0.68598900  0.13500600  0.54173200  1
  C  36  1  0.68804400  0.13423400  0.58119100  1
  C  45  1  0.14289100  0.59066400  0.60302700  1
  C  46  1  0.09851700  0.54868300  0.58238900  1
  C  47  1  0.10081200  0.54746400  0.54295900  1
  C  48  1  0.14693000  0.58998400  0.52391400  1
  C  49  1  0.18992000  0.63408200  0.54416900  1
  C  50  1  0.18859200  0.63379600  0.58377800  1
  C  53  1  0.14007200  0.58981700  0.64268100  1
  C  54  1  0.09622000  0.63395000  0.66249700  1
  C  55  1  0.09476500  0.63259200  0.70210900  1
  C  56  1  0.13596500  0.58589300  0.72176300  1
  C  57  1  0.18046200  0.54234200  0.70219600  1
  C  58  1  0.18261000  0.54517400  0.66276200  1
  C  67  1  0.64046000  0.59285400  0.10237900  1
  C  68  1  0.68489600  0.63559600  0.08225900  1
  C  69  1  0.68306300  0.63792300  0.04283200  1
  C  70  1  0.63738400  0.59570600  0.02325900  1
  C  71  1  0.59435800  0.55086600  0.04298500  1
  C  72  1  0.59523200  0.55003100  0.08259400  1
  C  75  1  0.64308800  0.59220500  0.14204000  1
  C  76  1  0.68732000  0.54774200  0.16137400  1
  C  77  1  0.68864800  0.54758200  0.20099100  1
  C  78  1  0.64701400  0.59316600  0.22115100  1
  C  79  1  0.60226700  0.63715300  0.20206100  1
  C  80  1  0.60014500  0.63574600  0.16260100  1
  C  89  1  0.89192000  0.34111500  0.35232200  1
  C  90  1  0.85031400  0.38595600  0.33178200  1
  C  91  1  0.85144000  0.38603600  0.29232300  1
  C  92  1  0.89374500  0.33989800  0.27315400  1
  C  93  1  0.93424400  0.29346000  0.29336800  1
  C  94  1  0.93469200  0.29522000  0.33295800  1
  C  97  1  0.89179800  0.34378000  0.39197600  1
  C  98  1  0.93457100  0.38951100  0.41143700  1
  C  99  1  0.93409400  0.39108000  0.45103800  1
  C  100  1  0.89333500  0.34463300  0.47113000  1
  C  101  1  0.85093300  0.29860000  0.45189300  1
  C  102  1  0.85012800  0.29887900  0.41241500  1
  C  111  1  0.89605000  0.84387000  0.85354700  1
  C  112  1  0.93655800  0.79783200  0.83314200  1
  C  113  1  0.93585800  0.79774800  0.79368100  1
  C  114  1  0.89515200  0.84513400  0.77437600  1
  C  115  1  0.85573400  0.89269600  0.79444900  1
  C  116  1  0.85477600  0.89092100  0.83403900  1
  C  119  1  0.89562100  0.84115200  0.89320700  1
  C  120  1  0.85183500  0.79614900  0.91250600  1
  C  121  1  0.85193800  0.79442200  0.95211300  1
  C  122  1  0.89345400  0.83996600  0.97236700  1
  C  123  1  0.93696900  0.88517700  0.95329500  1
  C  124  1  0.93801800  0.88510800  0.91381600  1
  C  133  1  0.39279500  0.34196600  0.89098000  1
  C  134  1  0.35160900  0.29689300  0.91162600  1
  C  135  1  0.35269900  0.29715700  0.95108400  1
  C  136  1  0.39439400  0.34397400  0.97015100  1
  C  137  1  0.43434100  0.39075700  0.94984400  1
  C  138  1  0.43495500  0.38857200  0.91025100  1
  C  141  1  0.39262700  0.33894400  0.85132000  1
  C  142  1  0.43687000  0.29454500  0.83191000  1
  C  143  1  0.43605900  0.29238500  0.79231100  1
  C  144  1  0.39336200  0.33696200  0.77215700  1
  C  145  1  0.34945100  0.38163200  0.79133600  1
  C  146  1  0.34904900  0.38190800  0.83081400  1
  C  155  1  0.39492100  0.83925600  0.39228000  1
  C  156  1  0.43702200  0.88377200  0.41273900  1
  C  157  1  0.43628100  0.88377200  0.45220000  1
  C  158  1  0.39395000  0.83779600  0.47146600  1
  C  159  1  0.35300400  0.79160600  0.45135100  1
  C  160  1  0.35209300  0.79355000  0.41175500  1
  C  163  1  0.39464600  0.84213400  0.35261200  1
  C  164  1  0.35155600  0.88783600  0.33333333  1
  C  165  1  0.35199900  0.88994800  0.29372600  1
  C  166  1  0.39303900  0.84401700  0.27344600  1
  C  167  1  0.43583000  0.79809100  0.29249100  1
  C  168  1  0.43669900  0.79787800  0.33196900  1
  C  177  1  0.99090100  0.00497000  0.02565800  1
  C  179  1  0.97968500  0.92842800  0.97413000  1
  C  180  1  0.05079500  0.92607800  0.97071600  1
  C  182  1  0.06203400  0.00270300  0.02222200  1
  C  185  1  0.79950000  0.17754000  0.52412900  1
  C  187  1  0.80912400  0.25423800  0.47257800  1
  C  188  1  0.73798900  0.25509500  0.46914400  1
  C  190  1  0.72833500  0.17846700  0.52074500  1
  C  193  1  0.29467200  0.50145300  0.71925100  1
  C  195  1  0.30628200  0.42453500  0.77057300  1
  C  196  1  0.23518300  0.42157500  0.77388400  1
  C  198  1  0.22353700  0.49864500  0.72258700  1
  C  201  1  0.48838900  0.67833800  0.21983700  1
  C  203  1  0.47811100  0.75454300  0.27157400  1
  C  204  1  0.54926600  0.75676400  0.27466100  1
  C  206  1  0.55957300  0.68046000  0.22294400  1
  C  209  1  0.24043500  0.75799400  0.47392200  1
  C  211  1  0.23273500  0.67745000  0.52361800  1
  C  212  1  0.30335700  0.66726400  0.52184400  1
  C  214  1  0.31099800  0.74762000  0.47202400  1
  C  217  1  0.73861700  0.42456400  0.27211800  1
  C  219  1  0.73072300  0.50328100  0.22150300  1
  C  220  1  0.80191900  0.50870200  0.22078400  1
  C  222  1  0.80979800  0.42998100  0.27142000  1
  C  225  1  0.55032800  0.26012900  0.77146700  1
  C  227  1  0.56184200  0.18037900  0.72155600  1
  C  228  1  0.49110100  0.17037000  0.72163100  1
  C  230  1  0.47968900  0.24965900  0.77177700  1
  C  233  1  0.98640300  0.51331800  0.52227400  1
  C  235  1  0.97655700  0.43490200  0.47160200  1
  C  236  1  0.04750500  0.42666400  0.47145400  1
  C  238  1  0.05739600  0.50542100  0.52191300  1
  C  241  1  0.79787000  0.67197200  0.02285000  1
  C  243  1  0.80882400  0.75097000  0.97250700  1
  C  244  1  0.73793600  0.75966900  0.97216000  1
  C  246  1  0.72693400  0.68031200  0.02228500  1
  C  249  1  0.30004900  0.01310300  0.22291100  1
  C  251  1  0.30956200  0.93404800  0.27330600  1
  C  252  1  0.23862500  0.92580400  0.27328300  1
  C  254  1  0.22906300  0.00512200  0.22303900  1
  C  257  1  0.24030800  0.25829800  0.97171100  1
  C  259  1  0.23328200  0.17981800  0.02248900  1
  C  260  1  0.30450200  0.17452900  0.02289200  1
  C  262  1  0.31150400  0.25299000  0.97210700  1
  C  265  1  0.74387000  0.92908000  0.77224100  1
  C  267  1  0.73758000  0.00885800  0.72215400  1
  C  268  1  0.80845200  0.01729000  0.72356200  1
  C  270  1  0.81471100  0.93761800  0.77379200  1
  C  273  1  0.48635200  0.00667300  0.52350300  1
  C  275  1  0.47810500  0.92765500  0.47303900  1
  C  276  1  0.54926100  0.92192200  0.47233500  1
  C  278  1  0.55753000  0.00087300  0.52285800  1
  C  281  1  0.98231200  0.67395700  0.72205300  1
  C  283  1  0.97624300  0.75240300  0.77292000  1
  C  284  1  0.04756500  0.75528300  0.77402100  1
  C  286  1  0.05362600  0.67709100  0.72307300  1
  C  289  1  0.04682100  0.25849000  0.27140200  1
  C  291  1  0.05436800  0.17784800  0.22179900  1
  C  292  1  0.98359200  0.16862000  0.22310000  1
  C  294  1  0.97608200  0.24910000  0.27286300  1
  C  297  1  0.48153800  0.51630200  0.02022000  1
  C  299  1  0.47541800  0.43590300  0.97031900  1
  C  300  1  0.54621800  0.42710100  0.97213200  1
  C  302  1  0.55232600  0.50748000  0.02195100  1
  H  7  1  0.22142200  0.01826800  0.14875500  1
  H  16  1  0.07139500  0.01601300  0.09638600  1
  H  19  1  0.07942700  0.22037200  0.14015400  1
  H  20  1  0.20740900  0.22220800  0.10402500  1
  H  21  1  0.09978300  0.06302400  0.26726300  1
  H  22  1  0.18980400  0.06434800  0.97721800  1
  H  29  1  0.56993700  0.16512200  0.64739700  1
  H  38  1  0.72010100  0.16661300  0.59498500  1
  H  41  1  0.71287400  0.96391000  0.64078400  1
  H  42  1  0.58451400  0.96030200  0.60467500  1
  H  43  1  0.69220500  0.12573200  0.76633700  1
  H  44  1  0.60047800  0.11517700  0.47666500  1
  H  51  1  0.06524100  0.51758200  0.59620100  1
  H  60  1  0.21470000  0.51352600  0.64848700  1
  H  63  1  0.20809300  0.71911400  0.60546600  1
  H  64  1  0.08079200  0.72111500  0.64204100  1
  H  65  1  0.18675300  0.56339600  0.47781900  1
  H  66  1  0.09497100  0.55935000  0.76753300  1
  H  73  1  0.71799400  0.66631600  0.09645100  1
  H  82  1  0.56798500  0.66782400  0.14867200  1
  H  85  1  0.57632500  0.46397100  0.10355100  1
  H  86  1  0.70397000  0.46155600  0.13997900  1
  H  87  1  0.59812000  0.62318600  0.97718400  1
  H  88  1  0.68784900  0.61836400  0.26720900  1
  H  95  1  0.81967000  0.41955200  0.34566300  1
  H  104  1  0.81971800  0.26524000  0.39840800  1
  H  107  1  0.01519100  0.27427300  0.35938000  1
  H  108  1  0.01439600  0.41037900  0.38432300  1
  H  109  1  0.93330600  0.36391900  0.22658900  1
  H  110  1  0.93296300  0.32089400  0.51773100  1
  H  117  1  0.96600100  0.76331400  0.84712900  1
  H  126  1  0.96928100  0.91812300  0.89993000  1
  H  129  1  0.77462600  0.91378600  0.86030600  1
  H  130  1  0.77200000  0.77684200  0.88505900  1
  H  131  1  0.85542200  0.82215200  0.72768600  1
  H  132  1  0.85394400  0.86425700  0.01890400  1
  H  139  1  0.32138600  0.26280100  0.89783100  1
  H  148  1  0.31754900  0.41460600  0.84476800  1
  H  151  1  0.51547300  0.41053100  0.88412100  1
  H  152  1  0.51780800  0.27669800  0.85865800  1
  H  153  1  0.43409700  0.32074200  0.01680300  1
  H  154  1  0.43169900  0.36139100  0.72533400  1
  H  161  1  0.46762200  0.91732700  0.39879600  1
  H  170  1  0.46750000  0.76439200  0.34582500  1
  H  173  1  0.27105400  0.77308500  0.38573900  1
  H  174  1  0.27160300  0.90808600  0.36045200  1
  H  175  1  0.35500700  0.86201100  0.51816400  1
  H  176  1  0.35357200  0.82056000  0.22676600  1
  H  183  1  0.96753400  0.03499600  0.04505000  1
  H  184  1  0.07418800  0.89604200  0.95133900  1
  H  191  1  0.82347000  0.14815400  0.54359600  1
  H  192  1  0.71398400  0.28472800  0.44980600  1
  H  199  1  0.31792200  0.53190000  0.70001600  1
  H  200  1  0.21198100  0.39122800  0.79318600  1
  H  207  1  0.46467500  0.64851200  0.20047900  1
  H  208  1  0.57299900  0.78670600  0.29395800  1
  H  215  1  0.21640800  0.79264500  0.45731300  1
  H  216  1  0.32728400  0.63268800  0.53854100  1
  H  223  1  0.71424500  0.39261300  0.29015800  1
  H  224  1  0.82623600  0.54086900  0.20284200  1
  H  231  1  0.57311600  0.29447500  0.78878200  1
  H  232  1  0.46836100  0.13619300  0.70419300  1
  H  239  1  0.96293300  0.54613000  0.54020400  1
  H  240  1  0.07103900  0.39329700  0.45386000  1
  H  247  1  0.82093200  0.63870900  0.04068700  1
  H  248  1  0.71481800  0.79332500  0.95456900  1
  H  255  1  0.32363900  0.04616500  0.20516800  1
  H  256  1  0.21498400  0.89221600  0.29070300  1
  H  263  1  0.21562300  0.29015800  0.95375000  1
  H  264  1  0.32913800  0.14253000  0.04079300  1
  H  271  1  0.71918800  0.89526100  0.78907900  1
  H  272  1  0.83303000  0.05076300  0.70647300  1
  H  279  1  0.46216700  0.03903100  0.54139400  1
  H  280  1  0.57348600  0.88971200  0.45437700  1
  H  287  1  0.95721900  0.64306900  0.70376000  1
  H  288  1  0.07272300  0.78633800  0.79220800  1
  H  295  1  0.07097400  0.29283000  0.28815200  1
  H  296  1  0.95952600  0.13445200  0.20621000  1
  H  303  1  0.45691300  0.55010400  0.03708800  1
  H  304  1  0.57090200  0.39284600  0.95556600  1
  N  178  1  0.95290900  0.96759000  0.00177700  1
  N  181  1  0.08873400  0.96340000  0.99461400  1
  N  186  1  0.83671100  0.21564700  0.50022800  1
  N  189  1  0.70082400  0.21717300  0.49312600  1
  N  194  1  0.33284600  0.46416800  0.74307600  1
  N  197  1  0.19704300  0.45889500  0.75006700  1
  N  202  1  0.45083000  0.71564900  0.24396000  1
  N  205  1  0.58677000  0.71954300  0.25050100  1
  N  210  1  0.20419800  0.72186500  0.49913300  1
  N  213  1  0.33968400  0.70343200  0.49661300  1
  N  218  1  0.70212200  0.46182600  0.24751500  1
  N  221  1  0.83844000  0.47138800  0.24538500  1
  N  226  1  0.58839400  0.22456200  0.74684300  1
  N  229  1  0.45295300  0.20584300  0.74633100  1
  N  234  1  0.94894000  0.47722900  0.49752400  1
  N  237  1  0.08487600  0.46263600  0.49621000  1
  N  242  1  0.83583900  0.70810000  0.99835400  1
  N  245  1  0.70004300  0.72357400  0.99662900  1
  N  250  1  0.33734600  0.97673400  0.24761500  1
  N  253  1  0.20143000  0.96205400  0.24855800  1
  N  258  1  0.20424500  0.22109900  0.99653400  1
  N  261  1  0.34061300  0.21180500  0.99808700  1
  N  266  1  0.70823700  0.96556200  0.74694300  1
  N  269  1  0.84417900  0.98060300  0.74882900  1
  N  274  1  0.44965200  0.96935700  0.49898500  1
  N  277  1  0.58590600  0.95914600  0.49689200  1
  N  282  1  0.94668600  0.71225400  0.74659700  1
  N  285  1  0.08317200  0.71727200  0.74937100  1
  N  290  1  0.08307700  0.22191000  0.24640500  1
  N  293  1  0.94728200  0.20528300  0.24811000  1
  N  298  1  0.44593600  0.47940500  0.99500200  1
  N  301  1  0.58176100  0.46374300  0.99742200  1
  O  8  1  0.13926100  0.09017500  0.25957100  1
  O  15  1  0.14954800  0.09012500  0.98513100  1
  O  17  1  0.05609800  0.17641900  0.14205700  1
  O  18  1  0.23190300  0.17887200  0.10228800  1
  O  30  1  0.65292100  0.09803500  0.75893600  1
  O  37  1  0.64090400  0.08965100  0.48455600  1
  O  39  1  0.73631000  0.00784500  0.64239000  1
  O  40  1  0.56002500  0.00360100  0.60265500  1
  O  52  1  0.14739300  0.59061300  0.48562600  1
  O  59  1  0.13550200  0.58510200  0.76003400  1
  O  61  1  0.23115200  0.67504000  0.60342900  1
  O  62  1  0.05581400  0.67800000  0.64330100  1
  O  74  1  0.63748700  0.59596200  0.98497100  1
  O  81  1  0.64747800  0.59263800  0.25942800  1
  O  83  1  0.55282500  0.50784700  0.10173800  1
  O  84  1  0.72835200  0.50495400  0.14172200  1
  O  96  1  0.89309400  0.33848000  0.23488500  1
  O  103  1  0.89254900  0.34596700  0.50939300  1
  O  105  1  0.97352500  0.25002700  0.35233600  1
  O  106  1  0.97334200  0.43488900  0.39213800  1
  O  118  1  0.89622200  0.84649600  0.73610800  1
  O  125  1  0.89393300  0.83844500  0.01062700  1
  O  127  1  0.81684800  0.93706500  0.85328200  1
  O  128  1  0.81245500  0.75153400  0.89304500  1
  O  140  1  0.39363200  0.34567400  0.00841900  1
  O  147  1  0.39223700  0.33508600  0.73390300  1
  O  149  1  0.47320300  0.43409100  0.89076200  1
  O  150  1  0.47734700  0.25079900  0.85128100  1
  O  162  1  0.39497000  0.83632500  0.50973400  1
  O  169  1  0.39380400  0.84583200  0.23518800  1
  O  171  1  0.31278100  0.74865600  0.39247000  1
  O  172  1  0.31263100  0.93281100  0.35281100  1
