# generated using pymatgen
data_H28C51(N3O2)4
_symmetry_space_group_name_H-M   'P 1'
_cell_length_a   20.36405000
_cell_length_b   38.55185000
_cell_length_c   38.55190000
_cell_angle_alpha   59.99987129
_cell_angle_beta   89.89110000
_cell_angle_gamma   89.78219961
_symmetry_Int_Tables_number   1
_chemical_formula_structural   H28C51(N3O2)4
_chemical_formula_sum   'H84 C153 N36 O24'
_cell_volume   26210.90978275
_cell_formula_units_Z   3
loop_
 _symmetry_equiv_pos_site_id
 _symmetry_equiv_pos_as_xyz
  1  'x, y, z'
loop_
 _atom_site_type_symbol
 _atom_site_label
 _atom_site_symmetry_multiplicity
 _atom_site_fract_x
 _atom_site_fract_y
 _atom_site_fract_z
 _atom_site_occupancy
  C  1  1  0.03194100  0.05118500  0.52461950  1
  C  2  1  0.10151500  0.05093550  0.52453950  1
  C  3  1  0.10195200  0.98916900  0.51684200  1
  C  4  1  0.03238300  0.98904600  0.51659400  1
  C  5  1  0.99993800  0.95831300  0.51322700  1
  C  6  1  0.03388500  0.92745900  0.51075800  1
  C  7  1  0.10320400  0.92851100  0.51092500  1
  C  8  1  0.13655700  0.95897500  0.51366400  1
  C  9  1  0.13571200  0.08111250  0.52771900  1
  C  10  1  0.10195200  0.11169700  0.53026850  1
  C  11  1  0.03261800  0.11287850  0.53026400  1
  C  12  1  0.99907400  0.08201300  0.52784350  1
  C  13  1  0.95338300  0.04276750  0.48226500  1
  C  14  1  0.88376600  0.04197750  0.48251200  1
  C  15  1  0.88352600  0.99847700  0.55830600  1
  C  16  1  0.95314900  0.99759400  0.55874800  1
  C  17  1  0.84869000  0.97850000  0.59492500  1
  C  18  1  0.88192500  0.95779550  0.63175650  1
  C  19  1  0.95104100  0.95489800  0.63299000  1
  C  20  1  0.98550900  0.97534600  0.59626800  1
  C  21  1  0.98597600  0.06495350  0.44483600  1
  C  22  1  0.95175800  0.08535500  0.40801500  1
  C  23  1  0.88266000  0.08260350  0.40905400  1
  C  24  1  0.84918000  0.06199350  0.44579700  1
  C  37  1  0.99271700  0.02014800  0.52056150  1
  C  38  1  0.84571400  0.02025650  0.52035650  1
  C  41  1  0.13969000  0.02001150  0.52074950  1
  C  44  1  0.98638800  0.93749200  0.66865550  1
  C  45  1  0.99550200  0.14350300  0.53031150  1
  C  46  1  0.98737200  0.10274700  0.37244250  1
  C  50  1  0.99714200  0.89698900  0.51046000  1
  C  52  1  0.36541800  0.52340350  0.48526900  1
  C  53  1  0.43499200  0.52301700  0.48554750  1
  C  54  1  0.43535000  0.51531000  0.55501600  1
  C  55  1  0.36578100  0.51536550  0.55543700  1
  C  56  1  0.33331567  0.51212250  0.58956700  1
  C  57  1  0.36721500  0.50949650  0.62286900  1
  C  58  1  0.43653300  0.50933350  0.62161400  1
  C  59  1  0.46992100  0.51197100  0.58836950  1
  C  60  1  0.46921900  0.52603900  0.45216800  1
  C  61  1  0.43548800  0.52872050  0.41906600  1
  C  62  1  0.36615400  0.52904100  0.41792950  1
  C  63  1  0.33258500  0.52676900  0.45123850  1
  C  64  1  0.28657200  0.48138950  0.53608600  1
  C  65  1  0.21695900  0.48194850  0.53665000  1
  C  66  1  0.21721400  0.55774300  0.50435350  1
  C  67  1  0.28683700  0.55787150  0.50478350  1
  C  68  1  0.18262400  0.59451900  0.48769550  1
  C  69  1  0.21610500  0.63120100  0.47155000  1
  C  70  1  0.28522200  0.63212400  0.47320450  1
  C  71  1  0.31944400  0.59524300  0.48950800  1
  C  72  1  0.31891900  0.44381450  0.55130900  1
  C  73  1  0.28445600  0.40715250  0.56768450  1
  C  74  1  0.21536300  0.40849950  0.56942300  1
  C  75  1  0.18212800  0.44538900  0.55335500  1
  C  88  1  0.32615700  0.51950950  0.52039200  1
  C  89  1  0.17915200  0.51996350  0.52053600  1
  C  92  1  0.47312300  0.51905900  0.52023650  1
  C  95  1  0.32082900  0.66762500  0.45493850  1
  C  96  1  0.32905400  0.52913000  0.38734550  1
  C  97  1  0.31982200  0.37141900  0.58581850  1
  C  101  1  0.33044400  0.50923750  0.65372300  1
  C  103  1  0.69871600  0.48484700  0.05127550  1
  C  104  1  0.76828700  0.48503550  0.05120650  1
  C  105  1  0.76849300  0.55448750  0.98941850  1
  C  106  1  0.69892000  0.55499550  0.98911550  1
  C  107  1  0.66636700  0.58914000  0.95827200  1
  C  108  1  0.70021600  0.62236500  0.92746900  1
  C  109  1  0.76954000  0.62101450  0.92870500  1
  C  110  1  0.80299400  0.58776200  0.95927850  1
  C  111  1  0.80258400  0.45160250  0.08146300  1
  C  112  1  0.76892500  0.41850750  0.11192500  1
  C  113  1  0.69959200  0.41747850  0.11293700  1
  C  114  1  0.66595300  0.45084950  0.08200800  1
  C  115  1  0.61977900  0.53577250  0.04264000  1
  C  116  1  0.55016100  0.53639300  0.04172150  1
  C  117  1  0.55044600  0.50406200  0.99825350  1
  C  118  1  0.62007000  0.50442750  0.99749850  1
  C  119  1  0.51587100  0.48742600  0.97824250  1
  C  120  1  0.54936400  0.47122350  0.95763200  1
  C  121  1  0.61847800  0.47277450  0.95490400  1
  C  122  1  0.65269100  0.48908950  0.97533800  1
  C  123  1  0.65211600  0.55098750  0.06487950  1
  C  124  1  0.61763300  0.56744300  0.08521650  1
  C  125  1  0.54853100  0.56923400  0.08233850  1
  C  126  1  0.51531000  0.55313250  0.06167150  1
  C  139  1  0.65937400  0.52001300  0.02012950  1
  C  140  1  0.51237300  0.52029500  0.01994450  1
  C  143  1  0.80634500  0.51967300  0.02037500  1
  C  146  1  0.65411600  0.45449750  0.93754400  1
  C  147  1  0.66254600  0.38684050  0.14341450  1
  C  148  1  0.65296600  0.58560550  0.10265500  1
  C  152  1  0.66340500  0.65315350  0.89683900  1
  C  154  1  0.93479700  0.16510300  0.31842650  1
  C  155  1  0.94023900  0.18535350  0.27644350  1
  C  157  1  0.85432200  0.23192150  0.26814800  1
  C  158  1  0.84789700  0.21320100  0.31059350  1
  C  159  1  0.88917200  0.18013200  0.33521450  1
  C  161  1  0.81542000  0.26507850  0.23977400  1
  C  162  1  0.79756400  0.27177100  0.20114150  1
  C  163  1  0.75502200  0.30425100  0.17697100  1
  C  164  1  0.73170800  0.33017200  0.19011450  1
  C  165  1  0.75136400  0.32255900  0.22822850  1
  C  178  1  0.26716100  0.31767100  0.57731250  1
  C  179  1  0.27269000  0.27567750  0.59885900  1
  C  181  1  0.18677800  0.26771400  0.56064750  1
  C  182  1  0.18025200  0.31018250  0.53711700  1
  C  183  1  0.22148200  0.33464100  0.54562150  1
  C  185  1  0.14796500  0.23948400  0.55577900  1
  C  186  1  0.13040400  0.20072900  0.58759250  1
  C  187  1  0.08796600  0.17671050  0.57921400  1
  C  188  1  0.06444900  0.19012800  0.54019400  1
  C  189  1  0.08379200  0.22835550  0.50981700  1
  C  202  1  0.60047900  0.57699200  0.16511500  1
  C  203  1  0.60573900  0.59852550  0.18556600  1
  C  205  1  0.52022600  0.56010900  0.23205050  1
  C  206  1  0.51399000  0.53658950  0.21311100  1
  C  207  1  0.55515100  0.54520550  0.17998650  1
  C  209  1  0.48143100  0.55512650  0.26530350  1
  C  210  1  0.46338500  0.58689350  0.27230150  1
  C  211  1  0.42099100  0.57839450  0.30485850  1
  C  212  1  0.39799000  0.53930400  0.33055650  1
  C  213  1  0.41781900  0.50897550  0.32264850  1
  C  226  1  0.93430700  0.87499400  0.72251300  1
  C  227  1  0.93991800  0.85451800  0.76449200  1
  C  229  1  0.85457200  0.80801950  0.77262950  1
  C  230  1  0.84799600  0.82698600  0.73017400  1
  C  231  1  0.88890100  0.86012700  0.70563300  1
  C  233  1  0.81600300  0.77477400  0.80093000  1
  C  234  1  0.79829600  0.76774300  0.83973250  1
  C  235  1  0.75597600  0.73525300  0.86378100  1
  C  236  1  0.73273400  0.70963800  0.85035700  1
  C  237  1  0.75227700  0.71755700  0.81209600  1
  C  250  1  0.26882000  0.72173900  0.46343100  1
  C  251  1  0.27441300  0.76370500  0.44177800  1
  C  253  1  0.18894900  0.77218400  0.48013350  1
  C  254  1  0.18240300  0.72975100  0.50378200  1
  C  255  1  0.22337700  0.70504500  0.49525500  1
  C  257  1  0.15027300  0.80063800  0.48496900  1
  C  258  1  0.13247600  0.83937300  0.45308600  1
  C  259  1  0.09000400  0.86358000  0.46142600  1
  C  260  1  0.06671800  0.85037600  0.50046700  1
  C  261  1  0.08637000  0.81217800  0.53092400  1
  C  274  1  0.60203600  0.46290200  0.87511150  1
  C  275  1  0.60792500  0.44124100  0.85479850  1
  C  277  1  0.52216200  0.47943900  0.80821250  1
  C  278  1  0.51530000  0.50309200  0.82700050  1
  C  279  1  0.55628000  0.49465150  0.86010500  1
  C  281  1  0.48352900  0.48418750  0.77504550  1
  C  282  1  0.46621900  0.45227400  0.76822450  1
  C  283  1  0.42375600  0.46051800  0.73581350  1
  C  284  1  0.40000300  0.49950300  0.71006650  1
  C  285  1  0.41916900  0.52999200  0.71777350  1
  H  25  1  0.85602000  0.09502850  0.38308100  1
  H  26  1  0.79898200  0.06080200  0.44551050  1
  H  27  1  0.79846800  0.97974200  0.59506750  1
  H  28  1  0.85508400  0.94537100  0.65765700  1
  H  29  1  0.03583000  0.97474900  0.59675000  1
  H  30  1  0.03629600  0.06546300  0.44449250  1
  H  31  1  0.94961200  0.95819500  0.51338500  1
  H  32  1  0.13045300  0.90683300  0.50976100  1
  H  33  1  0.18682700  0.95854800  0.51407900  1
  H  34  1  0.94874800  0.08223250  0.52754300  1
  H  35  1  0.18597800  0.08144900  0.52742650  1
  H  36  1  0.12893100  0.13336400  0.53142150  1
  H  39  1  0.81403500  0.04211000  0.52245700  1
  H  40  1  0.81437400  0.99844600  0.51817000  1
  H  42  1  0.17110800  0.00449650  0.54719200  1
  H  43  1  0.17129000  0.03546200  0.49439750  1
  H  47  1  0.02846900  0.08884300  0.37230300  1
  H  48  1  0.02717700  0.95141200  0.66893300  1
  H  49  1  0.94746200  0.14339600  0.52588250  1
  H  51  1  0.94904200  0.89717700  0.51475750  1
  H  76  1  0.18854600  0.38264650  0.58293650  1
  H  77  1  0.13192100  0.44533100  0.55480250  1
  H  78  1  0.13240700  0.59489200  0.48632450  1
  H  79  1  0.18944000  0.65722000  0.45806550  1
  H  80  1  0.36976900  0.59549700  0.48959400  1
  H  81  1  0.36923800  0.44324600  0.55110150  1
  H  82  1  0.28297300  0.51250950  0.58955400  1
  H  83  1  0.46377300  0.50800400  0.64445750  1
  H  84  1  0.52019100  0.51213200  0.58835750  1
  H  85  1  0.28226100  0.52668250  0.45135650  1
  H  86  1  0.51948400  0.52551150  0.45209500  1
  H  87  1  0.46247700  0.52971150  0.39624400  1
  H  90  1  0.14752700  0.52220450  0.49658950  1
  H  91  1  0.14775800  0.51791950  0.54454000  1
  H  93  1  0.50471300  0.54536500  0.50928750  1
  H  94  1  0.50456100  0.49257050  0.53111200  1
  H  98  1  0.36085100  0.37105950  0.59990000  1
  H  99  1  0.36170500  0.66768950  0.44079300  1
  H  100  1  0.28105800  0.52462600  0.39204450  1
  H  102  1  0.28231500  0.51349600  0.64938250  1
  H  127  1  0.52169800  0.58279500  0.09473250  1
  H  128  1  0.46510400  0.55465800  0.06039450  1
  H  129  1  0.46565900  0.48609500  0.97939450  1
  H  130  1  0.52271900  0.45773250  0.94520450  1
  H  131  1  0.70301600  0.48913600  0.97484950  1
  H  132  1  0.70243700  0.55076500  0.06548550  1
  H  133  1  0.61604200  0.58919500  0.95801850  1
  H  134  1  0.79672500  0.64377450  0.90706450  1
  H  135  1  0.85326500  0.58768200  0.95899200  1
  H  136  1  0.61562900  0.45103750  0.08210200  1
  H  137  1  0.85285200  0.45144800  0.08191400  1
  H  138  1  0.79596800  0.39562250  0.13364800  1
  H  141  1  0.48083300  0.49638300  0.04174850  1
  H  142  1  0.48089100  0.54432100  0.99806800  1
  H  144  1  0.83795900  0.50867250  0.00495500  1
  H  145  1  0.83775400  0.53052450  0.03589950  1
  H  149  1  0.69385700  0.59972500  0.08874450  1
  H  150  1  0.69508900  0.44035900  0.95147450  1
  H  151  1  0.61447100  0.39146550  0.14318350  1
  H  153  1  0.61536400  0.64872250  0.89686500  1
  H  160  1  0.88553700  0.16697200  0.36564350  1
  H  167  1  0.73806700  0.30765000  0.15045250  1
  H  168  1  0.73278400  0.33892900  0.24023900  1
  H  169  1  0.97324600  0.17630300  0.26250650  1
  H  184  1  0.21776900  0.36508350  0.52848500  1
  H  191  1  0.07123600  0.15009100  0.60227100  1
  H  192  1  0.06507800  0.24054900  0.48149250  1
  H  193  1  0.30573400  0.26161200  0.62174900  1
  H  208  1  0.55165400  0.52807800  0.16667550  1
  H  215  1  0.40390200  0.60140550  0.30847350  1
  H  216  1  0.39947800  0.48059700  0.33885350  1
  H  217  1  0.63852400  0.62148300  0.17663150  1
  H  232  1  0.88514200  0.87346000  0.67519950  1
  H  239  1  0.73908000  0.73164800  0.89041950  1
  H  240  1  0.73373000  0.70143850  0.79988450  1
  H  241  1  0.97276700  0.86345250  0.77849200  1
  H  256  1  0.21964000  0.67462450  0.51246300  1
  H  263  1  0.07303800  0.89016400  0.43832500  1
  H  264  1  0.06777900  0.80011800  0.55927200  1
  H  265  1  0.30729000  0.77757200  0.41878400  1
  H  280  1  0.55231700  0.51187000  0.87330850  1
  H  287  1  0.40714300  0.43738500  0.73236350  1
  H  288  1  0.40023900  0.55829200  0.70156050  1
  H  289  1  0.64103300  0.41829750  0.86383750  1
  N  156  1  0.90072200  0.21699600  0.25366200  1
  N  166  1  0.79135800  0.29108600  0.25089250  1
  N  170  1  0.81765800  0.24482650  0.18825950  1
  N  171  1  0.79954200  0.22626850  0.32797450  1
  N  176  1  0.67972800  0.35302650  0.17336950  1
  N  177  1  0.97507300  0.13441000  0.33880300  1
  N  180  1  0.23322300  0.25305650  0.58994100  1
  N  190  1  0.12371100  0.25085950  0.51869400  1
  N  194  1  0.15070000  0.18755850  0.62739650  1
  N  195  1  0.13185300  0.32775050  0.50680050  1
  N  200  1  0.01259300  0.17346800  0.53408500  1
  N  201  1  0.30737900  0.33788150  0.58768600  1
  N  204  1  0.56634100  0.58950250  0.21726000  1
  N  214  1  0.45767400  0.51796800  0.29111350  1
  N  218  1  0.48315500  0.62675650  0.24557600  1
  N  219  1  0.46592900  0.50617450  0.22602300  1
  N  224  1  0.34613900  0.53304800  0.35349900  1
  N  225  1  0.64062500  0.58745750  0.13438350  1
  N  228  1  0.90075600  0.82281000  0.78719200  1
  N  238  1  0.79204400  0.74903700  0.78955700  1
  N  242  1  0.81828800  0.79438600  0.85291400  1
  N  243  1  0.79983400  0.81409100  0.71270000  1
  N  248  1  0.68079500  0.68689700  0.86696150  1
  N  249  1  0.97418500  0.90576800  0.70222250  1
  N  252  1  0.23517700  0.78656700  0.45071500  1
  N  262  1  0.12626400  0.78947900  0.52207800  1
  N  266  1  0.15252100  0.85233200  0.41326800  1
  N  267  1  0.13420000  0.71246500  0.53422850  1
  N  272  1  0.01463500  0.86710500  0.50653900  1
  N  273  1  0.30875900  0.70127950  0.45300950  1
  N  276  1  0.56868000  0.45009700  0.82312450  1
  N  286  1  0.45907300  0.52123550  0.74919300  1
  N  290  1  0.48673500  0.41250100  0.79499850  1
  N  291  1  0.46679800  0.53346300  0.81397550  1
  N  296  1  0.34793600  0.50545100  0.68742300  1
  N  297  1  0.64198900  0.45255150  0.90587150  1
  O  172  1  0.85035300  0.26230500  0.15639300  1
  O  173  1  0.82478800  0.23778550  0.35019550  1
  O  174  1  0.75863800  0.19916650  0.34802750  1
  O  175  1  0.76962800  0.22762550  0.18295100  1
  O  196  1  0.18360600  0.15572400  0.64142450  1
  O  197  1  0.15704400  0.35007250  0.47303100  1
  O  198  1  0.09091300  0.34775200  0.51408950  1
  O  199  1  0.10277700  0.18204450  0.65016250  1
  O  220  1  0.51581000  0.64089650  0.26324500  1
  O  221  1  0.49149300  0.47246150  0.23735300  1
  O  222  1  0.42493000  0.51339750  0.19888100  1
  O  223  1  0.43493800  0.64937200  0.22850350  1
  O  244  1  0.85116400  0.77661900  0.88469900  1
  O  245  1  0.82526000  0.80279150  0.69026850  1
  O  246  1  0.75862800  0.84123100  0.69284400  1
  O  247  1  0.77019100  0.81152300  0.85852200  1
  O  268  1  0.18528500  0.88410200  0.39903550  1
  O  269  1  0.15958800  0.69009700  0.56794850  1
  O  270  1  0.09305400  0.69259800  0.52711750  1
  O  271  1  0.10446600  0.85785100  0.39064550  1
  O  292  1  0.51977800  0.39838000  0.77733150  1
  O  293  1  0.49183700  0.56722900  0.80253000  1
  O  294  1  0.42565700  0.52629600  0.84107750  1
  O  295  1  0.43894500  0.38974550  0.81224500  1
