# generated using pymatgen
data_H8C14N3O
_symmetry_space_group_name_H-M   'P 1'
_cell_length_a   9.87733333
_cell_length_b   68.81020000
_cell_length_c   68.92230000
_cell_angle_alpha   119.96100000
_cell_angle_beta   90.00000000
_cell_angle_gamma   90.00000000
_symmetry_Int_Tables_number   1
_chemical_formula_structural   H8C14N3O
_chemical_formula_sum   'H96 C168 N36 O12'
_cell_volume   40583.87046733
_cell_formula_units_Z   12
loop_
 _symmetry_equiv_pos_site_id
 _symmetry_equiv_pos_as_xyz
  1  'x, y, z'
loop_
 _atom_site_type_symbol
 _atom_site_label
 _atom_site_symmetry_multiplicity
 _atom_site_fract_x
 _atom_site_fract_y
 _atom_site_fract_z
 _atom_site_occupancy
  C  1  1  0.02100500  0.98291700  0.02926500  1
  C  2  1  0.02115700  0.97690600  0.95557300  1
  C  3  1  0.02131800  0.05066000  0.02323200  1
  C  4  1  0.03240300  0.98637000  0.94146100  1
  C  5  1  0.02066600  0.97310300  0.91795100  1
  C  6  1  0.99638800  0.94976000  0.90755400  1
  C  7  1  0.98637500  0.94019700  0.92151800  1
  C  8  1  0.99958200  0.95342900  0.94494700  1
  C  9  1  0.03181300  0.95933100  0.01986700  1
  C  10  1  0.01996300  0.94909600  0.03316800  1
  C  11  1  0.99603900  0.96206400  0.05647900  1
  C  12  1  0.98656200  0.98560200  0.06598000  1
  C  13  1  0.99976400  0.99578600  0.05271000  1
  C  14  1  0.03272800  0.06475800  0.04677900  1
  C  15  1  0.02098600  0.08830700  0.05705800  1
  C  16  1  0.99647000  0.09875800  0.04417900  1
  C  17  1  0.98636000  0.08481100  0.02068000  1
  C  18  1  0.99961800  0.06134000  0.01044500  1
  C  29  1  0.02683200  0.02666700  0.01276900  1
  C  31  1  0.02668500  0.99335700  0.01572500  1
  C  33  1  0.02672500  0.99042500  0.97952800  1
  C  36  1  0.97227100  0.12170800  0.05386200  1
  C  38  1  0.97199900  0.93649100  0.88465100  1
  C  39  1  0.97166500  0.95245500  0.06979400  1
  C  43  1  0.01523100  0.45971600  0.26670100  1
  C  44  1  0.02769200  0.38624900  0.19808400  1
  C  45  1  0.00627900  0.45702800  0.19634800  1
  C  46  1  0.01306000  0.37242500  0.17456000  1
  C  47  1  0.02555200  0.34885200  0.16394100  1
  C  48  1  0.05418100  0.33815100  0.17646100  1
  C  49  1  0.06809800  0.35180300  0.19991700  1
  C  50  1  0.05401000  0.37527400  0.21048100  1
  C  51  1  0.97259000  0.45175600  0.28108800  1
  C  52  1  0.96059300  0.46643300  0.30439300  1
  C  53  1  0.99411100  0.48944400  0.31418000  1
  C  54  1  0.04109200  0.49724000  0.29990000  1
  C  55  1  0.05116000  0.48268900  0.27668900  1
  C  56  1  0.95978400  0.47954200  0.20777100  1
  C  57  1  0.97179200  0.49346100  0.19837300  1
  C  58  1  0.03077400  0.48548600  0.17701000  1
  C  59  1  0.07287600  0.46276200  0.16516900  1
  C  60  1  0.05983600  0.44872100  0.17457700  1
  C  71  1  0.00828400  0.44422600  0.20746800  1
  C  73  1  0.01534900  0.44577500  0.24292600  1
  C  75  1  0.01942500  0.41025800  0.20898300  1
  C  78  1  0.05694600  0.49993700  0.16873400  1
  C  80  1  0.07824200  0.31520300  0.16643800  1
  C  81  1  0.97158000  0.50431300  0.33681100  1
  C  85  1  0.01481200  0.74054000  0.19601100  1
  C  86  1  0.02779400  0.80924400  0.19119600  1
  C  87  1  0.00579300  0.81099100  0.26361700  1
  C  88  1  0.01346200  0.83280900  0.20086100  1
  C  89  1  0.02600100  0.84340600  0.18789600  1
  C  90  1  0.05449100  0.83082600  0.16470700  1
  C  91  1  0.06812200  0.80733000  0.15493800  1
  C  92  1  0.05384800  0.79678800  0.16785100  1
  C  93  1  0.97272700  0.72615300  0.17365500  1
  C  94  1  0.96081200  0.70280200  0.16498400  1
  C  95  1  0.99384200  0.69297400  0.17817900  1
  C  96  1  0.04021000  0.70725600  0.20026800  1
  C  97  1  0.05030900  0.73051200  0.20896500  1
  C  98  1  0.95859400  0.79956500  0.27466000  1
  C  99  1  0.97055100  0.80893400  0.29794200  1
  C  100  1  0.03052700  0.83024600  0.31133500  1
  C  101  1  0.07349800  0.84207900  0.30049100  1
  C  102  1  0.06011400  0.83273800  0.27709200  1
  C  113  1  0.00799100  0.79986800  0.23972900  1
  C  115  1  0.01505200  0.76435500  0.20586000  1
  C  117  1  0.01941500  0.79835600  0.20430600  1
  C  120  1  0.05703200  0.83844200  0.33400500  1
  C  122  1  0.07884400  0.84081200  0.15176900  1
  C  123  1  0.97149800  0.67029300  0.17035500  1
  C  127  1  0.01509600  0.81114600  0.54703800  1
  C  128  1  0.02770200  0.81589800  0.62043600  1
  C  129  1  0.00573800  0.74341600  0.54980000  1
  C  130  1  0.01308700  0.80617900  0.63427100  1
  C  131  1  0.02558700  0.81911900  0.65780400  1
  C  132  1  0.05427300  0.84234200  0.66845500  1
  C  133  1  0.06814300  0.85216800  0.65479400  1
  C  134  1  0.05398000  0.83927600  0.63136300  1
  C  135  1  0.97264700  0.83351500  0.55497000  1
  C  136  1  0.96079700  0.84218500  0.54030300  1
  C  137  1  0.99405500  0.82896500  0.51732100  1
  C  138  1  0.04073100  0.80686000  0.50954800  1
  C  139  1  0.05089600  0.79817500  0.52410000  1
  C  140  1  0.95857900  0.73237600  0.52736100  1
  C  141  1  0.97052600  0.70905900  0.51344400  1
  C  142  1  0.03049100  0.69563000  0.52132700  1
  C  143  1  0.07345900  0.70647000  0.54397000  1
  C  144  1  0.06001800  0.72990300  0.55803600  1
  C  155  1  0.00784800  0.76734300  0.56257500  1
  C  157  1  0.01523100  0.80128600  0.56098400  1
  C  159  1  0.01936500  0.80280600  0.59646600  1
  C  162  1  0.05696500  0.67292200  0.50685200  1
  C  164  1  0.07854000  0.85525200  0.69135800  1
  C  165  1  0.97170000  0.83677200  0.50246300  1
  C  169  1  0.02344600  0.15915300  0.08194900  1
  C  170  1  0.13963500  0.17256700  0.09120100  1
  C  172  1  0.01195900  0.20662000  0.10521300  1
  C  173  1  0.89029200  0.19413300  0.09674500  1
  C  174  1  0.89824600  0.17039300  0.08523100  1
  C  176  1  0.00880200  0.23037200  0.11674800  1
  C  177  1  0.12768300  0.26534800  0.13622200  1
  C  178  1  0.00722200  0.27789500  0.14018700  1
  C  179  1  0.88584300  0.26571400  0.13164500  1
  C  182  1  0.88405100  0.24192500  0.11997900  1
  C  183  1  0.76315200  0.22940400  0.11151000  1
  C  184  1  0.76623600  0.20569800  0.09999600  1
  C  193  1  0.02310600  0.92452000  0.07939200  1
  C  194  1  0.13928000  0.91525900  0.08355600  1
  C  196  1  0.01188400  0.90152000  0.10384800  1
  C  197  1  0.89023100  0.91001100  0.09984500  1
  C  198  1  0.89804700  0.92138800  0.08749100  1
  C  200  1  0.00885100  0.89011100  0.11618100  1
  C  201  1  0.12781600  0.87071900  0.13176300  1
  C  202  1  0.00749400  0.86689900  0.14048100  1
  C  203  1  0.88614600  0.87547000  0.13686000  1
  C  206  1  0.88424200  0.88702800  0.12463700  1
  C  207  1  0.76336100  0.89552600  0.12060900  1
  C  208  1  0.76632600  0.90691700  0.10830300  1
  C  217  1  0.02339900  0.92703800  0.84721100  1
  C  218  1  0.13957000  0.92289800  0.83381200  1
  C  220  1  0.01203400  0.90276700  0.79981500  1
  C  221  1  0.89038800  0.90675200  0.81228500  1
  C  222  1  0.89827600  0.91901300  0.83598900  1
  C  224  1  0.00892200  0.89052400  0.77610200  1
  C  225  1  0.12779000  0.87503600  0.74117600  1
  C  226  1  0.00739800  0.86639100  0.72865000  1
  C  227  1  0.88605500  0.86999800  0.74082200  1
  C  230  1  0.88423700  0.88214100  0.76457100  1
  C  231  1  0.76336400  0.88615800  0.77707800  1
  C  232  1  0.76640300  0.89837400  0.80074300  1
  C  241  1  0.00751000  0.53582600  0.17249300  1
  C  242  1  0.89244900  0.54894000  0.17489100  1
  C  244  1  0.02428600  0.57585700  0.17082000  1
  C  245  1  0.14471600  0.56356200  0.16852400  1
  C  246  1  0.13407000  0.54346500  0.16936200  1
  C  248  1  0.03024800  0.59642400  0.17092200  1
  C  249  1  0.91515600  0.62867700  0.17452600  1
  C  250  1  0.03782100  0.63836700  0.17302900  1
  C  251  1  0.15869400  0.62644300  0.17058600  1
  C  254  1  0.15707900  0.60517700  0.16913500  1
  C  255  1  0.27671200  0.59275700  0.16654300  1
  C  256  1  0.27049000  0.57203100  0.16612800  1
  C  265  1  0.00753100  0.83462600  0.36605800  1
  C  266  1  0.89246900  0.83223000  0.37675900  1
  C  268  1  0.02433100  0.83626200  0.40767900  1
  C  269  1  0.14476700  0.83855100  0.39769100  1
  C  270  1  0.13411200  0.83773200  0.37679900  1
  C  272  1  0.03029800  0.83615400  0.42810900  1
  C  273  1  0.91521400  0.83257000  0.45672800  1
  C  274  1  0.03789000  0.83405000  0.46788800  1
  C  275  1  0.15876300  0.83647500  0.45840800  1
  C  278  1  0.15714000  0.83792600  0.43862400  1
  C  279  1  0.27678100  0.84050700  0.42880400  1
  C  280  1  0.27055500  0.84093000  0.40853200  1
  C  289  1  0.00748000  0.64085000  0.47100700  1
  C  290  1  0.89242200  0.63013600  0.45792400  1
  C  292  1  0.02431500  0.59918900  0.43103500  1
  C  293  1  0.14474800  0.60918800  0.44329900  1
  C  294  1  0.13407600  0.63010100  0.46336500  1
  C  296  1  0.03028900  0.57874000  0.41050900  1
  C  297  1  0.91520200  0.55009000  0.37833500  1
  C  298  1  0.03788600  0.53891700  0.36865800  1
  C  299  1  0.15876300  0.54841100  0.38054900  1
  C  302  1  0.15713900  0.56821600  0.40176600  1
  C  303  1  0.27678100  0.57804800  0.41415200  1
  C  304  1  0.27054700  0.59834000  0.43483500  1
  H  19  1  0.96742300  0.92341100  0.91475100  1
  H  20  1  0.98919500  0.94565100  0.95421200  1
  H  21  1  0.98980800  0.01283900  0.06044600  1
  H  22  1  0.04666000  0.94918700  0.00303500  1
  H  23  1  0.02491300  0.93198000  0.02552900  1
  H  24  1  0.96788400  0.99563600  0.08274100  1
  H  25  1  0.04787000  0.05799300  0.05686700  1
  H  26  1  0.96732700  0.09162000  0.01071100  1
  H  27  1  0.98909400  0.05208300  0.99342700  1
  H  28  1  0.02627500  0.09770800  0.07414700  1
  H  35  1  0.04744900  0.00323000  0.94818600  1
  H  37  1  0.02584500  0.98079800  0.90853400  1
  H  40  1  0.90390000  0.95988200  0.08204900  1
  H  41  1  0.90415700  0.92422100  0.87978300  1
  H  42  1  0.90459300  0.12663400  0.04649300  1
  H  61  1  0.09005200  0.34477600  0.20960100  1
  H  62  1  0.06677100  0.38430000  0.22746600  1
  H  63  1  0.08325900  0.48933700  0.26711400  1
  H  64  1  0.94338900  0.43540800  0.27461900  1
  H  65  1  0.92447100  0.46021500  0.31413200  1
  H  66  1  0.06379000  0.51382800  0.30611700  1
  H  67  1  0.91954700  0.48642100  0.22351800  1
  H  68  1  0.11774600  0.45637900  0.14979300  1
  H  69  1  0.09673900  0.43271200  0.16583800  1
  H  70  1  0.94162700  0.50981900  0.20781500  1
  H  77  1  0.99427200  0.37940800  0.16476100  1
  H  79  1  0.01719100  0.33960500  0.14687700  1
  H  82  1  0.89338600  0.50171700  0.34434000  1
  H  83  1  0.15422900  0.31017900  0.17235600  1
  H  84  1  0.13040700  0.49609200  0.15751800  1
  H  103  1  0.09000100  0.79760100  0.13824900  1
  H  104  1  0.06653300  0.77977400  0.15991900  1
  H  105  1  0.08205300  0.74008400  0.22518600  1
  H  106  1  0.94393500  0.73265000  0.16379400  1
  H  107  1  0.92515600  0.69306000  0.14901700  1
  H  108  1  0.06272700  0.70099900  0.21060100  1
  H  109  1  0.91784500  0.78383300  0.26578100  1
  H  110  1  0.11911400  0.85741700  0.30948600  1
  H  111  1  0.09795400  0.84144300  0.26984900  1
  H  112  1  0.94006100  0.79946600  0.30481400  1
  H  119  1  0.99482300  0.84265000  0.21762300  1
  H  121  1  0.01794100  0.86050100  0.19568500  1
  H  124  1  0.89339900  0.66275100  0.16021600  1
  H  125  1  0.15515500  0.83488700  0.14090600  1
  H  126  1  0.13077600  0.84961900  0.34136200  1
  H  145  1  0.09022200  0.86888000  0.66178300  1
  H  146  1  0.06684700  0.84724800  0.62233000  1
  H  147  1  0.08289400  0.78194300  0.51747800  1
  H  148  1  0.94381800  0.84339800  0.57130500  1
  H  149  1  0.92499400  0.85816600  0.54650600  1
  H  150  1  0.06351600  0.79651100  0.49299400  1
  H  151  1  0.91780900  0.74128100  0.52053600  1
  H  152  1  0.11902800  0.69744700  0.55028700  1
  H  153  1  0.09786200  0.73714300  0.57396100  1
  H  154  1  0.94003700  0.70218800  0.49712900  1
  H  161  1  0.99431700  0.78938900  0.62732000  1
  H  163  1  0.01733700  0.81128500  0.66705800  1
  H  166  1  0.89382000  0.84697300  0.50508200  1
  H  167  1  0.15472000  0.86616100  0.69633200  1
  H  168  1  0.13087300  0.66555600  0.51063400  1
  H  175  1  0.81189000  0.16106800  0.07916600  1
  H  180  1  0.23263000  0.16537600  0.08952600  1
  H  185  1  0.79729700  0.27440700  0.13420200  1
  H  186  1  0.21912400  0.27314700  0.14159600  1
  H  188  1  0.62663800  0.24183200  0.10178500  1
  H  190  1  0.63372500  0.19165200  0.07738500  1
  H  199  1  0.81168300  0.92746300  0.08424300  1
  H  204  1  0.23218000  0.91683200  0.07794800  1
  H  209  1  0.79769100  0.87301200  0.14308500  1
  H  210  1  0.21925600  0.86532300  0.13416300  1
  H  212  1  0.62750500  0.90549100  0.14285200  1
  H  214  1  0.63433900  0.92963700  0.11682600  1
  H  223  1  0.81191600  0.92224800  0.84529500  1
  H  228  1  0.23251500  0.92845900  0.84098800  1
  H  233  1  0.79754900  0.86382100  0.73214900  1
  H  234  1  0.21922100  0.87263600  0.73338800  1
  H  236  1  0.62718500  0.86394000  0.76472700  1
  H  238  1  0.63418500  0.88977500  0.81482600  1
  H  247  1  0.21960500  0.53472600  0.16859500  1
  H  252  1  0.79916900  0.54448500  0.17781700  1
  H  257  1  0.24888000  0.63353500  0.17011500  1
  H  258  1  0.82550600  0.63706300  0.17728300  1
  H  260  1  0.41648500  0.59530500  0.14923600  1
  H  262  1  0.40297900  0.55071400  0.14840100  1
  H  271  1  0.21964200  0.83850300  0.36884300  1
  H  276  1  0.79915900  0.82933100  0.36940200  1
  H  281  1  0.24895700  0.83693600  0.46595200  1
  H  282  1  0.82555300  0.82982700  0.46236000  1
  H  284  1  0.41663700  0.85782400  0.44862600  1
  H  286  1  0.40312300  0.85867700  0.40495800  1
  H  295  1  0.21960600  0.63806700  0.47208500  1
  H  300  1  0.79909400  0.63749600  0.46238500  1
  H  305  1  0.24896100  0.54085900  0.37347000  1
  H  306  1  0.82553700  0.54444900  0.36997300  1
  H  308  1  0.41668800  0.55819200  0.41161800  1
  H  310  1  0.40316300  0.60190000  0.45610800  1
  N  30  1  0.02629000  0.01610600  0.02503400  1
  N  32  1  0.02617400  0.98107800  0.99292800  1
  N  34  1  0.02631200  0.01326000  0.99005400  1
  N  72  1  0.00970200  0.45558000  0.23014000  1
  N  74  1  0.01913100  0.42296600  0.23185200  1
  N  76  1  0.01498000  0.42140400  0.19717500  1
  N  114  1  0.00931700  0.77715800  0.22841800  1
  N  116  1  0.01901100  0.77545100  0.19415600  1
  N  118  1  0.01487600  0.81018300  0.22722900  1
  N  156  1  0.00938200  0.77869000  0.55121800  1
  N  158  1  0.01911100  0.81299600  0.58375600  1
  N  160  1  0.01475500  0.77984500  0.58535700  1
  N  171  1  0.13036100  0.19530600  0.10213200  1
  N  181  1  0.12431700  0.24257100  0.12493100  1
  N  191  1  0.03622800  0.13678100  0.07117800  1
  N  192  1  0.00155600  0.30035100  0.15105500  1
  N  195  1  0.13013400  0.90445500  0.09548200  1
  N  205  1  0.12434700  0.88190500  0.12018000  1
  N  215  1  0.03583700  0.93518600  0.06769100  1
  N  216  1  0.00184000  0.85610800  0.15214000  1
  N  219  1  0.13035600  0.91106100  0.81111100  1
  N  229  1  0.12440300  0.88653900  0.76391500  1
  N  239  1  0.03617100  0.93866700  0.86955000  1
  N  240  1  0.00170400  0.85478800  0.70622800  1
  N  243  1  0.90434900  0.56806800  0.17391500  1
  N  253  1  0.91576800  0.60851100  0.17358700  1
  N  263  1  0.99423100  0.51874900  0.17623600  1
  N  264  1  0.04569800  0.65927100  0.17688400  1
  N  267  1  0.90438000  0.83319100  0.39682200  1
  N  277  1  0.91581500  0.83350500  0.43752900  1
  N  287  1  0.99414600  0.83093600  0.34528800  1
  N  288  1  0.04576000  0.83019800  0.48491500  1
  N  291  1  0.90434400  0.61005300  0.43882500  1
  N  301  1  0.91580000  0.56930800  0.39845500  1
  N  311  1  0.99405900  0.66163900  0.48809000  1
  N  312  1  0.04579800  0.52186300  0.34780500  1
  O  187  1  0.64131500  0.23989100  0.11483100  1
  O  189  1  0.64726600  0.19429000  0.09265200  1
  O  211  1  0.64164700  0.89235200  0.12791300  1
  O  213  1  0.64735800  0.91429500  0.10427300  1
  O  235  1  0.64158200  0.87893000  0.76661100  1
  O  237  1  0.64744400  0.90239900  0.81213500  1
  O  259  1  0.40017600  0.60085500  0.16523500  1
  O  261  1  0.38826400  0.56100600  0.16448100  1
  O  283  1  0.40025200  0.84180100  0.43818700  1
  O  285  1  0.38833000  0.84257000  0.39916300  1
  O  307  1  0.40026200  0.56865800  0.40606100  1
  O  309  1  0.38832200  0.60772200  0.44583200  1
