# generated using pymatgen
data_H5C8N
_symmetry_space_group_name_H-M   'P 1'
_cell_length_a   42.14440000
_cell_length_b   59.63980000
_cell_length_c   60.13280000
_cell_angle_alpha   89.99880000
_cell_angle_beta   89.94990000
_cell_angle_gamma   89.99830000
_symmetry_Int_Tables_number   1
_chemical_formula_structural   H5C8N
_chemical_formula_sum   'H240 C384 N48'
_cell_volume   151142.74796663
_cell_formula_units_Z   48
loop_
 _symmetry_equiv_pos_site_id
 _symmetry_equiv_pos_as_xyz
  1  'x, y, z'
loop_
 _atom_site_type_symbol
 _atom_site_label
 _atom_site_symmetry_multiplicity
 _atom_site_fract_x
 _atom_site_fract_y
 _atom_site_fract_z
 _atom_site_occupancy
  H  19  1  0.33639700  0.14891100  0.17771500  1
  H  20  1  0.29671700  0.12948600  0.19831900  1
  H  21  1  0.34956200  0.19366400  0.23128300  1
  H  22  1  0.24553800  0.07596300  0.28899800  1
  H  23  1  0.25997700  0.07254500  0.21950100  1
  H  24  1  0.25963700  0.03250200  0.22151400  1
  H  25  1  0.24460300  0.03596500  0.29082000  1
  H  26  1  0.20840000  0.13139200  0.30586500  1
  H  27  1  0.15294800  0.19346300  0.27110300  1
  H  28  1  0.19238500  0.17346300  0.25042900  1
  H  29  1  0.16844400  0.15084300  0.32607000  1
  H  36  1  0.29325900  0.10550400  0.23288700  1
  H  37  1  0.21133900  0.10625300  0.27265800  1
  H  38  1  0.25159500  0.16687700  0.25107300  1
  H  39  1  0.31040900  0.17381800  0.25229400  1
  H  61  1  0.66689400  0.14884600  0.82505200  1
  H  62  1  0.70663500  0.12946700  0.80446000  1
  H  63  1  0.65364700  0.19357900  0.77147500  1
  H  64  1  0.75816200  0.07599100  0.71383600  1
  H  65  1  0.74319500  0.07253900  0.78327600  1
  H  66  1  0.74339600  0.03250100  0.78123100  1
  H  67  1  0.75897800  0.03599500  0.71198700  1
  H  68  1  0.79519700  0.13137500  0.69702900  1
  H  69  1  0.85022600  0.19366800  0.73172000  1
  H  70  1  0.81083900  0.17361400  0.75239100  1
  H  71  1  0.83511600  0.15087600  0.67683700  1
  H  78  1  0.71011600  0.10550200  0.76987200  1
  H  79  1  0.79215300  0.10630100  0.73022300  1
  H  80  1  0.75172800  0.16689900  0.75173400  1
  H  81  1  0.69286600  0.17377800  0.75047600  1
  H  103  1  0.33948700  0.35264500  0.82379300  1
  H  104  1  0.29894200  0.37257200  0.80419600  1
  H  105  1  0.34956900  0.30857600  0.76934900  1
  H  106  1  0.24605300  0.42668300  0.71382100  1
  H  107  1  0.25990300  0.42997900  0.78335000  1
  H  108  1  0.25937200  0.47003700  0.78142700  1
  H  109  1  0.24499100  0.46668800  0.71208000  1
  H  110  1  0.20768500  0.37015700  0.69698500  1
  H  111  1  0.15315200  0.30918400  0.73420600  1
  H  112  1  0.19304700  0.32953500  0.75365600  1
  H  113  1  0.16697700  0.35009200  0.67775600  1
  H  120  1  0.29371400  0.39708900  0.76976200  1
  H  121  1  0.21164900  0.39625700  0.73016000  1
  H  122  1  0.25195800  0.33572200  0.75179500  1
  H  123  1  0.31001100  0.32875300  0.74952200  1
  H  145  1  0.66383900  0.35272100  0.17897900  1
  H  146  1  0.70444100  0.37258300  0.19858000  1
  H  147  1  0.65346500  0.30875500  0.23348000  1
  H  148  1  0.75764400  0.42669600  0.28889600  1
  H  149  1  0.74323900  0.42997900  0.21942200  1
  H  150  1  0.74365000  0.47003500  0.22134500  1
  H  151  1  0.75860600  0.46670200  0.29063400  1
  H  152  1  0.79591500  0.37018600  0.30569500  1
  H  153  1  0.84983700  0.30891100  0.26853500  1
  H  154  1  0.81000600  0.32933700  0.24911900  1
  H  155  1  0.83658100  0.35004800  0.32488600  1
  H  162  1  0.70963400  0.39712700  0.23303800  1
  H  163  1  0.79180000  0.39620500  0.27253200  1
  H  164  1  0.75124200  0.33571400  0.25100300  1
  H  165  1  0.69310100  0.32886700  0.25330800  1
  H  187  1  0.66893400  0.85064600  0.82592800  1
  H  188  1  0.70858700  0.87054100  0.80580100  1
  H  189  1  0.65406800  0.80822300  0.77074000  1
  H  190  1  0.75924900  0.93011700  0.71950500  1
  H  191  1  0.74412200  0.92655500  0.78892400  1
  H  192  1  0.74278200  0.96654500  0.79077600  1
  H  193  1  0.75853300  0.97014700  0.72155600  1
  H  194  1  0.79707300  0.87376500  0.69838600  1
  H  195  1  0.85063700  0.80972200  0.73102500  1
  H  196  1  0.81120800  0.82919400  0.75210900  1
  H  197  1  0.83703200  0.85474900  0.67772600  1
  H  204  1  0.71085000  0.89585800  0.77256900  1
  H  205  1  0.79288700  0.89752100  0.73294300  1
  H  206  1  0.75243500  0.83569700  0.75095300  1
  H  207  1  0.69321600  0.82862200  0.75015900  1
  H  229  1  0.33354400  0.85065300  0.17662100  1
  H  230  1  0.29386500  0.87049600  0.19677600  1
  H  231  1  0.34890000  0.80844100  0.23190500  1
  H  232  1  0.24374400  0.93009300  0.28321100  1
  H  233  1  0.25822600  0.92656500  0.21372400  1
  H  234  1  0.25967600  0.96655700  0.21189500  1
  H  235  1  0.24459200  0.97012700  0.28118900  1
  H  236  1  0.20574500  0.87373700  0.30435500  1
  H  237  1  0.15227500  0.80963000  0.27176800  1
  H  238  1  0.19162400  0.82914100  0.25065000  1
  H  239  1  0.16585900  0.85467900  0.32504900  1
  H  246  1  0.29173800  0.89589000  0.23001500  1
  H  247  1  0.20987000  0.89750100  0.26981500  1
  H  248  1  0.25036600  0.83570000  0.25174500  1
  H  249  1  0.30971500  0.82878500  0.25250500  1
  H  271  1  0.66619400  0.65333400  0.17797600  1
  H  272  1  0.70680800  0.63295600  0.19695700  1
  H  273  1  0.65388300  0.69443700  0.23447000  1
  H  274  1  0.75910200  0.57264400  0.28299500  1
  H  275  1  0.74463000  0.57616200  0.21354000  1
  H  276  1  0.74337000  0.53616200  0.21170200  1
  H  277  1  0.75839700  0.53260400  0.28097300  1
  H  278  1  0.79819200  0.62978400  0.30409500  1
  H  279  1  0.85038100  0.69326700  0.26943700  1
  H  280  1  0.81061600  0.67342100  0.24941800  1
  H  281  1  0.83887200  0.64939000  0.32388900  1
  H  288  1  0.71088800  0.60685500  0.22998200  1
  H  289  1  0.79303400  0.60530000  0.26948200  1
  H  290  1  0.75223100  0.66702400  0.25168200  1
  H  291  1  0.69363000  0.67377500  0.25365700  1
  H  313  1  0.33633800  0.65326300  0.82490500  1
  H  314  1  0.29569300  0.63296000  0.80587400  1
  H  315  1  0.34920400  0.69417400  0.76833300  1
  H  316  1  0.24386400  0.57262700  0.71974000  1
  H  317  1  0.25779400  0.57615500  0.78925000  1
  H  318  1  0.25915600  0.53615500  0.79109000  1
  H  319  1  0.24468900  0.53258400  0.72176100  1
  H  320  1  0.20454000  0.62976900  0.69863300  1
  H  321  1  0.15272600  0.69344300  0.73321800  1
  H  322  1  0.19240900  0.67353100  0.75324300  1
  H  323  1  0.16392000  0.64943900  0.67883800  1
  H  330  1  0.29177600  0.60678200  0.77283500  1
  H  331  1  0.20974100  0.60531500  0.73322200  1
  H  332  1  0.25068400  0.66699700  0.75102600  1
  H  333  1  0.30941300  0.67358300  0.74909700  1
  H  355  1  0.95663100  0.28193700  0.46405100  1
  H  356  1  0.96059100  0.28002600  0.42457700  1
  H  357  1  0.98072700  0.26365600  0.31838700  1
  H  358  1  0.92996500  0.28849200  0.37385700  1
  H  359  1  0.89306700  0.30593300  0.34947100  1
  H  360  1  0.94405500  0.28099500  0.29418800  1
  H  361  1  0.04168000  0.23308100  0.32440300  1
  H  362  1  0.11553400  0.19627300  0.37422600  1
  H  363  1  0.07336400  0.21754900  0.38932700  1
  H  364  1  0.08406700  0.21169900  0.30925600  1
  H  371  1  0.03446500  0.23241200  0.43069700  1
  H  373  1  0.03012800  0.23415100  0.46993400  1
  H  376  1  0.89744000  0.30296700  0.28811600  1
  H  377  1  0.96745600  0.25948600  0.49969200  1
  H  378  1  0.14432200  0.18219000  0.34292300  1
  H  397  1  0.04655300  0.28205000  0.53869800  1
  H  398  1  0.04255900  0.28021000  0.57817300  1
  H  399  1  0.02231500  0.26407900  0.68438500  1
  H  400  1  0.07315200  0.28876700  0.62888300  1
  H  401  1  0.10998500  0.30630400  0.65324600  1
  H  402  1  0.05893200  0.28150700  0.70856200  1
  H  403  1  0.96152500  0.23333700  0.67840400  1
  H  404  1  0.88772800  0.19641700  0.62862500  1
  H  405  1  0.92984200  0.21772700  0.61349900  1
  H  406  1  0.91919300  0.21192200  0.69357700  1
  H  413  1  0.96881500  0.23249400  0.57211200  1
  H  415  1  0.97318300  0.23416200  0.53287300  1
  H  418  1  0.10528500  0.30376800  0.71460800  1
  H  419  1  0.03579800  0.25950600  0.50308500  1
  H  420  1  0.85899700  0.18231400  0.65994600  1
  H  439  1  0.04614800  0.72079000  0.53872400  1
  H  440  1  0.04211500  0.72263800  0.57818900  1
  H  441  1  0.02177100  0.73819000  0.68438300  1
  H  442  1  0.07187700  0.71315800  0.62872100  1
  H  443  1  0.10826900  0.69497000  0.65295700  1
  H  444  1  0.05794400  0.72011800  0.70843100  1
  H  445  1  0.96223800  0.77071700  0.67843900  1
  H  446  1  0.88979800  0.80881200  0.62855300  1
  H  447  1  0.93088400  0.78647100  0.61350200  1
  H  448  1  0.92095800  0.79321200  0.69354200  1
  H  455  1  0.96843400  0.77039800  0.57208700  1
  H  457  1  0.97284000  0.76871500  0.53284300  1
  H  460  1  0.10371600  0.69729900  0.71433800  1
  H  461  1  0.03553900  0.74337400  0.50311900  1
  H  462  1  0.86340400  0.82523000  0.65984700  1
  H  481  1  0.95670700  0.72068600  0.46400500  1
  H  482  1  0.96080500  0.72247700  0.42453800  1
  H  483  1  0.98133400  0.73789600  0.31832900  1
  H  484  1  0.93109600  0.71296500  0.37397700  1
  H  485  1  0.89474500  0.69475200  0.34973000  1
  H  486  1  0.94519900  0.71980100  0.29427000  1
  H  487  1  0.04075600  0.77054400  0.32429600  1
  H  488  1  0.11305900  0.80871500  0.37422300  1
  H  489  1  0.07201500  0.78632000  0.38925100  1
  H  490  1  0.08199600  0.79309300  0.30921800  1
  H  497  1  0.03432400  0.77035800  0.43062600  1
  H  499  1  0.02985400  0.76873100  0.46986700  1
  H  502  1  0.89946700  0.69693200  0.28835000  1
  H  503  1  0.96722000  0.74334400  0.49959600  1
  H  504  1  0.13937000  0.82523400  0.34294000  1
  H  523  1  0.45666800  0.28147800  0.96395900  1
  H  524  1  0.46083700  0.27968900  0.92450400  1
  H  525  1  0.48103500  0.26371800  0.81833700  1
  H  526  1  0.43096100  0.28892400  0.87393800  1
  H  527  1  0.39408700  0.30656700  0.84965200  1
  H  528  1  0.44441300  0.28126300  0.79424800  1
  H  529  1  0.54156200  0.23231600  0.82429700  1
  H  530  1  0.61541400  0.19549900  0.87411100  1
  H  531  1  0.57381400  0.21734300  0.88919900  1
  H  532  1  0.58335700  0.21034300  0.80916100  1
  H  539  1  0.53523600  0.23250100  0.93066700  1
  H  541  1  0.53068700  0.23411000  0.96990500  1
  H  544  1  0.39755900  0.30293300  0.78831600  1
  H  545  1  0.46751500  0.25916100  0.99956600  1
  H  546  1  0.64252200  0.17970500  0.84280200  1
  H  565  1  0.54658100  0.28156900  0.03882100  1
  H  566  1  0.54236000  0.27983800  0.07828000  1
  H  567  1  0.52198300  0.26402300  0.18446400  1
  H  568  1  0.57219000  0.28911400  0.12887100  1
  H  569  1  0.60901700  0.30679200  0.15316100  1
  H  570  1  0.55856600  0.28160000  0.20855900  1
  H  571  1  0.46156500  0.23250700  0.17848800  1
  H  572  1  0.38780600  0.19563300  0.12865400  1
  H  573  1  0.42937400  0.21751400  0.11357700  1
  H  574  1  0.41980000  0.21049500  0.19361200  1
  H  581  1  0.46806900  0.23256600  0.07213800  1
  H  583  1  0.47267200  0.23411700  0.03290300  1
  H  586  1  0.60534000  0.30335600  0.21450700  1
  H  587  1  0.53580400  0.25917700  0.00322900  1
  H  588  1  0.36074300  0.17977900  0.15995500  1
  H  607  1  0.54670700  0.72120400  0.03876100  1
  H  608  1  0.54258300  0.72301500  0.07822500  1
  H  609  1  0.52257700  0.73978900  0.18438400  1
  H  610  1  0.57333700  0.71481400  0.12897300  1
  H  611  1  0.61082300  0.69804700  0.15339700  1
  H  612  1  0.55980200  0.72310100  0.20861300  1
  H  613  1  0.46055100  0.76904700  0.17838300  1
  H  614  1  0.38532700  0.80460300  0.12867200  1
  H  615  1  0.42797200  0.78383700  0.11350600  1
  H  616  1  0.41769300  0.78989500  0.19359000  1
  H  623  1  0.46790400  0.76998900  0.07206900  1
  H  625  1  0.47241300  0.76836900  0.03283600  1
  H  628  1  0.60787600  0.70270500  0.21463800  1
  H  629  1  0.53561600  0.74338100  0.00313100  1
  H  630  1  0.35612000  0.81816300  0.16007300  1
  H  649  1  0.45626600  0.72110200  0.96399500  1
  H  650  1  0.46040600  0.72283700  0.92452800  1
  H  651  1  0.48045100  0.73941000  0.81834300  1
  H  652  1  0.42971700  0.71449100  0.87379000  1
  H  653  1  0.39232400  0.69759100  0.84938900  1
  H  654  1  0.44331200  0.72259800  0.79413600  1
  H  655  1  0.54234900  0.76878700  0.82429700  1
  H  656  1  0.61755800  0.80444600  0.87394200  1
  H  657  1  0.57497400  0.78364600  0.88914700  1
  H  658  1  0.58514600  0.78966900  0.80905300  1
  H  665  1  0.53499300  0.76989000  0.93061000  1
  H  667  1  0.53046800  0.76834400  0.96984600  1
  H  670  1  0.39569800  0.70171700  0.78809400  1
  H  671  1  0.46730800  0.74336200  0.99958800  1
  H  672  1  0.64668100  0.81803600  0.84251700  1
  C  1  1  0.25276400  0.07833100  0.25404200  1
  C  2  1  0.29938800  0.14972300  0.22738600  1
  C  3  1  0.20453600  0.15046900  0.27607800  1
  C  4  1  0.31526600  0.16855200  0.23645400  1
  C  5  1  0.33851900  0.18015500  0.22417700  1
  C  6  1  0.34637300  0.17350500  0.20235100  1
  C  7  1  0.33089900  0.15453000  0.19330600  1
  C  8  1  0.30776900  0.14287700  0.20561600  1
  C  9  1  0.25716100  0.06511300  0.23471800  1
  C  10  1  0.25674000  0.04152900  0.23583800  1
  C  11  1  0.25202500  0.03046500  0.25638500  1
  C  12  1  0.24796200  0.04352500  0.27570800  1
  C  13  1  0.24830300  0.06708300  0.27456000  1
  C  14  1  0.19682800  0.14433800  0.29818100  1
  C  15  1  0.17353800  0.15602900  0.31026500  1
  C  16  1  0.15729800  0.17440400  0.30068900  1
  C  17  1  0.16458000  0.18041100  0.27857800  1
  C  18  1  0.18798500  0.16873500  0.26649800  1
  C  30  1  0.22815300  0.13840100  0.26392100  1
  C  31  1  0.22885200  0.11469300  0.26431300  1
  C  32  1  0.25237800  0.10226700  0.25292600  1
  C  33  1  0.27550300  0.11423300  0.24066600  1
  C  34  1  0.27566300  0.13795800  0.23975200  1
  C  35  1  0.25175400  0.14971300  0.25149700  1
  C  43  1  0.75068300  0.07834700  0.74876600  1
  C  44  1  0.70393600  0.14970400  0.77539300  1
  C  45  1  0.79887400  0.15052800  0.72677900  1
  C  46  1  0.68802800  0.16851800  0.76632100  1
  C  47  1  0.66472600  0.18008800  0.77858700  1
  C  48  1  0.65687800  0.17343100  0.80041200  1
  C  49  1  0.67239200  0.15447200  0.80946300  1
  C  50  1  0.69556500  0.14285200  0.79716300  1
  C  51  1  0.74608300  0.06511800  0.76806300  1
  C  52  1  0.74644200  0.04153500  0.76692800  1
  C  53  1  0.75126600  0.03047900  0.74638900  1
  C  54  1  0.75554100  0.04354800  0.72709300  1
  C  55  1  0.75528400  0.06710600  0.72825900  1
  C  56  1  0.80667800  0.14436800  0.70470000  1
  C  57  1  0.82995000  0.15608400  0.69262500  1
  C  58  1  0.84605800  0.17452800  0.70217500  1
  C  59  1  0.83868600  0.18056700  0.72426300  1
  C  60  1  0.81530900  0.16885900  0.73633900  1
  C  72  1  0.77526000  0.13844000  0.73892500  1
  C  73  1  0.77460900  0.11473000  0.73854700  1
  C  74  1  0.75106200  0.10228500  0.74989500  1
  C  75  1  0.72788600  0.11423800  0.76212100  1
  C  76  1  0.72769500  0.13796300  0.76303900  1
  C  77  1  0.75160500  0.14973400  0.75131500  1
  C  85  1  0.25301700  0.42424300  0.74878100  1
  C  86  1  0.30040700  0.35278600  0.77479400  1
  C  87  1  0.20437200  0.35199500  0.72734700  1
  C  88  1  0.31571700  0.33397100  0.76523300  1
  C  89  1  0.33945500  0.32221100  0.77682000  1
  C  90  1  0.34890800  0.32893500  0.79839300  1
  C  91  1  0.33346300  0.34750100  0.80811000  1
  C  92  1  0.30977200  0.35933400  0.79646400  1
  C  93  1  0.25720000  0.43744100  0.76814200  1
  C  94  1  0.25664100  0.46103600  0.76707600  1
  C  95  1  0.25206400  0.47215100  0.74654600  1
  C  96  1  0.24824200  0.45910600  0.72718800  1
  C  97  1  0.24866300  0.43554000  0.72828400  1
  C  98  1  0.19608500  0.35754800  0.70519200  1
  C  99  1  0.17229500  0.34563300  0.69377100  1
  C  100  1  0.15572000  0.32797900  0.70419500  1
  C  101  1  0.16416900  0.32216400  0.72622900  1
  C  102  1  0.18806200  0.33399700  0.73759800  1
  C  114  1  0.22843700  0.36414600  0.73898300  1
  C  115  1  0.22921200  0.38784500  0.73846100  1
  C  116  1  0.25272400  0.40029100  0.74984600  1
  C  117  1  0.27590400  0.38834800  0.76208500  1
  C  118  1  0.27619700  0.36462000  0.76293500  1
  C  119  1  0.25214500  0.35288500  0.75133300  1
  C  127  1  0.75042400  0.42424500  0.25396100  1
  C  128  1  0.70283600  0.35284500  0.22800900  1
  C  129  1  0.79895300  0.35192400  0.27537900  1
  C  130  1  0.68743000  0.33407900  0.23758800  1
  C  131  1  0.66365300  0.32235800  0.22600000  1
  C  132  1  0.65425900  0.32907900  0.20441400  1
  C  133  1  0.66981600  0.34758700  0.19467400  1
  C  134  1  0.69354100  0.35938100  0.20632100  1
  C  135  1  0.74607200  0.43744300  0.23461800  1
  C  136  1  0.74654500  0.46103800  0.23568300  1
  C  137  1  0.75123300  0.47215800  0.25619800  1
  C  138  1  0.75527500  0.45911600  0.27553600  1
  C  139  1  0.75491800  0.43554800  0.27444100  1
  C  140  1  0.80739800  0.35752100  0.29749300  1
  C  141  1  0.83115900  0.34555800  0.30889800  1
  C  142  1  0.84755100  0.32780100  0.29850000  1
  C  143  1  0.83895700  0.32195300  0.27650200  1
  C  144  1  0.81509800  0.33383700  0.26514900  1
  C  156  1  0.77489200  0.36410900  0.26376600  1
  C  157  1  0.77418900  0.38781300  0.26426500  1
  C  158  1  0.75067900  0.40028800  0.25290600  1
  C  159  1  0.72743100  0.38836800  0.24071000  1
  C  160  1  0.72708300  0.36464200  0.23986300  1
  C  161  1  0.75111700  0.35287700  0.25145300  1
  C  169  1  0.75172900  0.92425200  0.75400300  1
  C  170  1  0.70501400  0.85157200  0.77593000  1
  C  171  1  0.79994500  0.85338600  0.72734700  1
  C  172  1  0.68876200  0.83322000  0.76626000  1
  C  173  1  0.66553500  0.82130500  0.77828100  1
  C  174  1  0.65820500  0.82713700  0.80042800  1
  C  175  1  0.67414900  0.84558400  0.81010000  1
  C  176  1  0.69724100  0.85752400  0.79806900  1
  C  177  1  0.74689100  0.93545900  0.77450200  1
  C  178  1  0.74630600  0.95901500  0.77566800  1
  C  179  1  0.75049600  0.97211700  0.75638400  1
  C  180  1  0.75549800  0.96109300  0.73584800  1
  C  181  1  0.75615200  0.93751400  0.73470900  1
  C  182  1  0.80831900  0.86042800  0.70563700  1
  C  183  1  0.83163400  0.84900700  0.69328700  1
  C  184  1  0.84733800  0.83007100  0.70222700  1
  C  185  1  0.83948000  0.82322500  0.72399600  1
  C  186  1  0.81605700  0.83460800  0.73631900  1
  C  198  1  0.77595100  0.86487800  0.73971600  1
  C  199  1  0.77527400  0.88859900  0.74066000  1
  C  200  1  0.75184200  0.90030900  0.75288200  1
  C  201  1  0.72856100  0.88762000  0.76422900  1
  C  202  1  0.72838600  0.86390800  0.76381500  1
  C  203  1  0.75225000  0.85286100  0.75140500  1
  C  211  1  0.25092000  0.92425000  0.24867400  1
  C  212  1  0.29766700  0.85161400  0.22668800  1
  C  213  1  0.20287800  0.85334800  0.27540100  1
  C  214  1  0.31405200  0.83333100  0.23637600  1
  C  215  1  0.33731300  0.82146100  0.22434600  1
  C  216  1  0.34451900  0.82724900  0.20216700  1
  C  217  1  0.32842100  0.84562000  0.19247300  1
  C  218  1  0.30530500  0.85752400  0.20451500  1
  C  219  1  0.25561100  0.93546600  0.22816300  1
  C  220  1  0.25625300  0.95902000  0.22701200  1
  C  221  1  0.25230600  0.97211200  0.24632600  1
  C  222  1  0.24744500  0.96108100  0.26687400  1
  C  223  1  0.24669300  0.93750100  0.26799600  1
  C  224  1  0.19452900  0.86038000  0.29712000  1
  C  225  1  0.17124700  0.84893900  0.30948500  1
  C  226  1  0.15557100  0.82998600  0.30056000  1
  C  227  1  0.16341500  0.82314500  0.27878900  1
  C  228  1  0.18679200  0.83455100  0.26644600  1
  C  240  1  0.22681900  0.86486300  0.26300400  1
  C  241  1  0.22745100  0.88858600  0.26205200  1
  C  242  1  0.25081900  0.90031100  0.24978400  1
  C  243  1  0.27407800  0.88764000  0.23839400  1
  C  244  1  0.27429900  0.86392900  0.23882300  1
  C  245  1  0.25050500  0.85286500  0.25128200  1
  C  253  1  0.75191500  0.57849800  0.24847400  1
  C  254  1  0.70425200  0.65119400  0.22730700  1
  C  255  1  0.80034800  0.64950900  0.27467200  1
  C  256  1  0.68838900  0.66935100  0.23762900  1
  C  257  1  0.66458000  0.68139400  0.22639300  1
  C  258  1  0.65573700  0.67564800  0.20441200  1
  C  259  1  0.67181800  0.65779000  0.19394100  1
  C  260  1  0.69555800  0.64568600  0.20522000  1
  C  261  1  0.74727400  0.56726400  0.22797400  1
  C  262  1  0.74674600  0.54369700  0.22681900  1
  C  263  1  0.75073300  0.53059000  0.24612100  1
  C  264  1  0.75551600  0.54164600  0.26666100  1
  C  265  1  0.75616700  0.56523300  0.26778400  1
  C  266  1  0.80935500  0.64290600  0.29640200  1
  C  267  1  0.83312500  0.65454200  0.30815900  1
  C  268  1  0.84902900  0.67292800  0.29847200  1
  C  269  1  0.83993600  0.67971500  0.27684500  1
  C  270  1  0.81609300  0.66816800  0.26515600  1
  C  282  1  0.77600300  0.63790600  0.26273800  1
  C  283  1  0.77534700  0.61418900  0.26183000  1
  C  284  1  0.75196100  0.60245300  0.24958800  1
  C  285  1  0.72861500  0.61511200  0.23826200  1
  C  286  1  0.72820800  0.63881800  0.23883400  1
  C  287  1  0.75213500  0.64986100  0.25117300  1
  C  295  1  0.25076400  0.57847900  0.75428900  1
  C  296  1  0.29853200  0.65110500  0.77548100  1
  C  297  1  0.20252800  0.64954800  0.72802500  1
  C  298  1  0.31455700  0.66918200  0.76514500  1
  C  299  1  0.33838700  0.68117700  0.77640900  1
  C  300  1  0.34708800  0.67545100  0.79842200  1
  C  301  1  0.33081800  0.65769500  0.80891500  1
  C  302  1  0.30706300  0.64563400  0.79760900  1
  C  303  1  0.25525800  0.56725200  0.77480900  1
  C  304  1  0.25585700  0.54368700  0.77596300  1
  C  305  1  0.25208500  0.53057800  0.75664200  1
  C  306  1  0.24741700  0.54162800  0.73608500  1
  C  307  1  0.24669000  0.56521600  0.73496100  1
  C  308  1  0.19344400  0.64292400  0.70631700  1
  C  309  1  0.16971800  0.65460500  0.69455600  1
  C  310  1  0.15392400  0.67305000  0.70421900  1
  C  311  1  0.16308400  0.67985100  0.72582700  1
  C  312  1  0.18688400  0.66826200  0.73751800  1
  C  324  1  0.22683700  0.63790900  0.73996600  1
  C  325  1  0.22742900  0.61419000  0.74088700  1
  C  326  1  0.25075300  0.60243100  0.75316700  1
  C  327  1  0.27410800  0.61506000  0.76451300  1
  C  328  1  0.27457400  0.63876400  0.76392700  1
  C  329  1  0.25072000  0.64983600  0.75154700  1
  C  337  1  0.95936200  0.27418600  0.34879400  1
  C  338  1  0.99812200  0.25617100  0.42337300  1
  C  339  1  0.05294700  0.22764200  0.35849400  1
  C  340  1  0.01813400  0.24321700  0.43731400  1
  C  341  1  0.01575000  0.24430500  0.46061700  1
  C  342  1  0.99353600  0.25869600  0.47097300  1
  C  343  1  0.97336200  0.27156900  0.45718900  1
  C  344  1  0.97567800  0.27037000  0.43384100  1
  C  345  1  0.93337700  0.28675000  0.35709700  1
  C  346  1  0.91147800  0.29709700  0.34265000  1
  C  347  1  0.91470000  0.29531800  0.31926200  1
  C  348  1  0.94066600  0.28280600  0.31096800  1
  C  349  1  0.96246600  0.27249400  0.32538600  1
  C  350  1  0.05700800  0.22543800  0.33519500  1
  C  351  1  0.08214200  0.21276900  0.32619100  1
  C  352  1  0.10427000  0.20177800  0.34015900  1
  C  353  1  0.10018900  0.20393300  0.36342300  1
  C  354  1  0.07511000  0.21657800  0.37238200  1
  C  365  1  0.02762600  0.24048900  0.36775900  1
  C  367  1  0.98157700  0.26349300  0.36325700  1
  C  369  1  0.00042400  0.25471200  0.39972700  1
  C  372  1  0.12946600  0.18906000  0.33202100  1
  C  374  1  0.98963500  0.25911900  0.49398600  1
  C  375  1  0.89359400  0.30514500  0.30429900  1
  C  379  1  0.04372500  0.27452600  0.65396400  1
  C  380  1  0.00508700  0.25631000  0.57940700  1
  C  381  1  0.95025200  0.22786300  0.64432000  1
  C  382  1  0.98512700  0.24330400  0.56548100  1
  C  383  1  0.98753300  0.24434700  0.54217600  1
  C  384  1  0.00971400  0.25875200  0.53180300  1
  C  385  1  0.02984400  0.27167200  0.54557100  1
  C  386  1  0.02751000  0.27051600  0.56891900  1
  C  387  1  0.06971200  0.28707500  0.64564500  1
  C  388  1  0.09157600  0.29747400  0.66007800  1
  C  389  1  0.08831500  0.29576500  0.68346800  1
  C  390  1  0.06234500  0.28327000  0.69178100  1
  C  391  1  0.04058200  0.27290300  0.67737500  1
  C  392  1  0.94620700  0.22567500  0.66762100  1
  C  393  1  0.92110600  0.21298400  0.67664200  1
  C  394  1  0.89899600  0.20195900  0.66268600  1
  C  395  1  0.90306100  0.20410400  0.63942000  1
  C  396  1  0.92810500  0.21676800  0.63044600  1
  C  407  1  0.97555300  0.24072000  0.63504000  1
  C  409  1  0.02154800  0.26377800  0.63951500  1
  C  411  1  0.00276000  0.25490000  0.60305400  1
  C  414  1  0.87384300  0.18920900  0.67083900  1
  C  416  1  0.01362000  0.25913700  0.50879000  1
  C  417  1  0.10937700  0.30565800  0.69841800  1
  C  421  1  0.04285300  0.72764800  0.65389200  1
  C  422  1  0.00468200  0.74657200  0.57941200  1
  C  423  1  0.95103400  0.77614200  0.64434500  1
  C  424  1  0.98475400  0.75958800  0.56546700  1
  C  425  1  0.98716500  0.75852300  0.54215900  1
  C  426  1  0.00935800  0.74411900  0.53179800  1
  C  427  1  0.02943600  0.73117400  0.54558400  1
  C  428  1  0.02706500  0.73232900  0.56893200  1
  C  429  1  0.06848400  0.71477700  0.64549200  1
  C  430  1  0.09008900  0.70398800  0.65984700  1
  C  431  1  0.08691300  0.70559600  0.68324700  1
  C  432  1  0.06127900  0.71839200  0.69163800  1
  C  433  1  0.03978200  0.72915400  0.67731200  1
  C  434  1  0.94717300  0.77859700  0.66763500  1
  C  435  1  0.92267800  0.79191200  0.67661200  1
  C  436  1  0.90100000  0.80332900  0.66262900  1
  C  437  1  0.90484600  0.80088900  0.63937400  1
  C  438  1  0.92927700  0.78759500  0.63044500  1
  C  449  1  0.97581100  0.76273700  0.63508900  1
  C  451  1  0.02097100  0.73882300  0.63951900  1
  C  453  1  0.00241100  0.74803000  0.60306900  1
  C  456  1  0.87654500  0.81679500  0.67073800  1
  C  458  1  0.01334100  0.74374000  0.50878600  1
  C  459  1  0.10781200  0.69542100  0.69814400  1
  C  463  1  0.96017800  0.72741000  0.34881300  1
  C  464  1  0.99817100  0.74645900  0.42330700  1
  C  465  1  0.05191600  0.77597500  0.35839700  1
  C  466  1  0.01803500  0.75952600  0.43724800  1
  C  467  1  0.01557900  0.75850300  0.46055500  1
  C  468  1  0.99341600  0.74408000  0.47092200  1
  C  469  1  0.97339900  0.73108400  0.45714100  1
  C  470  1  0.97580500  0.73220500  0.43379300  1
  C  471  1  0.93452400  0.71455900  0.35720500  1
  C  472  1  0.91294200  0.70375600  0.34284600  1
  C  473  1  0.91616600  0.70532900  0.31944500  1
  C  474  1  0.94182700  0.71810100  0.31106100  1
  C  475  1  0.96330300  0.72887700  0.32539400  1
  C  476  1  0.05579600  0.77843600  0.33510900  1
  C  477  1  0.08026800  0.79178300  0.32614700  1
  C  478  1  0.10190200  0.80322500  0.34014100  1
  C  479  1  0.09804100  0.80077200  0.36339400  1
  C  480  1  0.07363500  0.78744700  0.37230900  1
  C  491  1  0.02714400  0.76255600  0.36764000  1
  C  493  1  0.98202400  0.73861000  0.36319200  1
  C  495  1  0.00049100  0.74787900  0.39965200  1
  C  498  1  0.12631000  0.81673900  0.33204700  1
  C  500  1  0.98941800  0.74372300  0.49393300  1
  C  501  1  0.89528400  0.69514500  0.30454600  1
  C  505  1  0.46002600  0.27441100  0.84880200  1
  C  506  1  0.49865100  0.25605500  0.92331200  1
  C  507  1  0.55315100  0.22721900  0.85838200  1
  C  508  1  0.51874700  0.24319000  0.93727400  1
  C  509  1  0.51623900  0.24420600  0.96058100  1
  C  510  1  0.49379400  0.25842800  0.97093000  1
  C  511  1  0.47356100  0.27122800  0.95711900  1
  C  512  1  0.47600900  0.27010600  0.93377500  1
  C  513  1  0.43424800  0.28715500  0.85716900  1
  C  514  1  0.41237200  0.29763700  0.84278800  1
  C  515  1  0.41540700  0.29581900  0.81939300  1
  C  516  1  0.44116700  0.28312800  0.81103600  1
  C  517  1  0.46294200  0.27268900  0.82538700  1
  C  518  1  0.55692800  0.22471100  0.83508900  1
  C  519  1  0.58172200  0.21169400  0.82609100  1
  C  520  1  0.60381400  0.20064400  0.84004800  1
  C  521  1  0.60007900  0.20316600  0.86330400  1
  C  522  1  0.57533700  0.21615800  0.87225900  1
  C  533  1  0.52802700  0.24028600  0.86765100  1
  C  535  1  0.48220800  0.26356400  0.86319900  1
  C  537  1  0.50100500  0.25463200  0.89965700  1
  C  540  1  0.62854600  0.18745000  0.83191000  1
  C  542  1  0.48973200  0.25878000  0.99394100  1
  C  543  1  0.39423700  0.30566700  0.80447200  1
  C  547  1  0.54306200  0.27465700  0.15400100  1
  C  548  1  0.50459500  0.25616900  0.07948200  1
  C  549  1  0.45000500  0.22740300  0.14440200  1
  C  550  1  0.48455000  0.24326000  0.06552600  1
  C  551  1  0.48709200  0.24423600  0.04222100  1
  C  552  1  0.50951400  0.25847000  0.03186400  1
  C  553  1  0.52970600  0.27130900  0.04566700  1
  C  554  1  0.52722600  0.27022200  0.06901400  1
  C  555  1  0.56886100  0.28738200  0.14563900  1
  C  556  1  0.59071200  0.29788000  0.16002400  1
  C  557  1  0.58762900  0.29610400  0.18341800  1
  C  558  1  0.56184500  0.28343600  0.19177300  1
  C  559  1  0.54009400  0.27297900  0.17741600  1
  C  560  1  0.44621600  0.22489200  0.16769200  1
  C  561  1  0.42144000  0.21185200  0.17668400  1
  C  562  1  0.39938100  0.20078400  0.16271900  1
  C  563  1  0.40312000  0.20331500  0.13946400  1
  C  564  1  0.42784400  0.21632500  0.13051800  1
  C  575  1  0.47512800  0.24047900  0.13513900  1
  C  577  1  0.52091500  0.26378200  0.13960000  1
  C  579  1  0.50219900  0.25478400  0.10313700  1
  C  582  1  0.37468300  0.18755100  0.17085100  1
  C  584  1  0.51358600  0.25879400  0.00885200  1
  C  585  1  0.60877800  0.30597000  0.19834200  1
  C  589  1  0.54387400  0.72910800  0.15400200  1
  C  590  1  0.50463400  0.74654000  0.07940900  1
  C  591  1  0.44889300  0.77417900  0.14430700  1
  C  592  1  0.48445300  0.75934700  0.06545800  1
  C  593  1  0.48693500  0.75832200  0.04215500  1
  C  594  1  0.50943200  0.74414200  0.03180600  1
  C  595  1  0.52977700  0.73142100  0.04560600  1
  C  596  1  0.52736600  0.73256100  0.06895200  1
  C  597  1  0.57003400  0.71670900  0.14572600  1
  C  598  1  0.59226100  0.70674400  0.16019200  1
  C  599  1  0.58921100  0.70877300  0.18357000  1
  C  600  1  0.56307900  0.72112700  0.19183900  1
  C  601  1  0.54094100  0.73104000  0.17740300  1
  C  602  1  0.44492400  0.77641100  0.16761100  1
  C  603  1  0.41951500  0.78877300  0.17665100  1
  C  604  1  0.39699900  0.79940500  0.16271900  1
  C  605  1  0.40094500  0.79718500  0.13945000  1
  C  606  1  0.42630900  0.78485100  0.13045200  1
  C  617  1  0.47457000  0.76170900  0.13501600  1
  C  619  1  0.52132700  0.73942700  0.13952300  1
  C  621  1  0.50223000  0.74793000  0.10305400  1
  C  624  1  0.37160300  0.81189000  0.17090600  1
  C  626  1  0.51341600  0.74376000  0.00879300  1
  C  627  1  0.61068800  0.69939300  0.19854900  1
  C  631  1  0.45915500  0.72877100  0.84874000  1
  C  632  1  0.49831800  0.74638900  0.92330700  1
  C  633  1  0.55403400  0.77395100  0.85836300  1
  C  634  1  0.51847400  0.75923800  0.93723900  1
  C  635  1  0.51597300  0.75826300  0.96054200  1
  C  636  1  0.49349600  0.74408500  0.97091300  1
  C  637  1  0.47318300  0.73131700  0.95713300  1
  C  638  1  0.47560100  0.73241500  0.93378700  1
  C  639  1  0.43302200  0.71635900  0.85703300  1
  C  640  1  0.41084800  0.70632000  0.84258100  1
  C  641  1  0.41392100  0.70828800  0.81919700  1
  C  642  1  0.44001900  0.72066600  0.81091300  1
  C  643  1  0.46210500  0.73065400  0.82533500  1
  C  644  1  0.55797500  0.77617100  0.83505600  1
  C  645  1  0.58334700  0.78855200  0.82599100  1
  C  646  1  0.60585800  0.79921600  0.83990500  1
  C  647  1  0.60194500  0.79700300  0.86317800  1
  C  648  1  0.57661600  0.78465000  0.87219800  1
  C  659  1  0.52838300  0.76147400  0.86767700  1
  C  661  1  0.48166800  0.73914400  0.86320400  1
  C  663  1  0.50073100  0.74773700  0.89966200  1
  C  666  1  0.63120600  0.81173400  0.83169600  1
  C  668  1  0.48950500  0.74374100  0.99392700  1
  C  669  1  0.39253300  0.69878800  0.80422900  1
  N  40  1  0.13476800  0.18601800  0.31115100  1
  N  41  1  0.25098200  0.00837600  0.25869000  1
  N  42  1  0.36860100  0.18526000  0.19171000  1
  N  82  1  0.86855600  0.18617300  0.69171300  1
  N  83  1  0.75220900  0.00838900  0.74406700  1
  N  84  1  0.63461300  0.18515600  0.81104700  1
  N  124  1  0.13346400  0.31746200  0.69238200  1
  N  125  1  0.25098300  0.49426400  0.74427800  1
  N  126  1  0.37103700  0.31841100  0.81037800  1
  N  166  1  0.86979700  0.31725600  0.31030400  1
  N  167  1  0.75221200  0.49427200  0.25846400  1
  N  168  1  0.63212100  0.31857600  0.19242400  1
  N  208  1  0.86959100  0.81838400  0.69152600  1
  N  209  1  0.74950800  0.99420500  0.75872600  1
  N  210  1  0.63573700  0.81543200  0.81084100  1
  N  250  1  0.13334200  0.81828400  0.31126700  1
  N  251  1  0.25339900  0.99420000  0.24399800  1
  N  252  1  0.36703300  0.81558400  0.19175600  1
  N  292  1  0.87110800  0.68338900  0.31054000  1
  N  293  1  0.74972300  0.50847900  0.24379900  1
  N  294  1  0.63338700  0.68620100  0.19270200  1
  N  334  1  0.13186700  0.68353800  0.69215100  1
  N  335  1  0.25319600  0.50846900  0.75896300  1
  N  336  1  0.36943200  0.68598500  0.81014800  1
  N  366  1  0.00592900  0.25112400  0.35482500  1
  N  368  1  0.97944800  0.26498700  0.38582900  1
  N  370  1  0.02409500  0.24264800  0.39010100  1
  N  408  1  0.99721400  0.25140400  0.64795900  1
  N  410  1  0.02370000  0.26522700  0.61694100  1
  N  412  1  0.97910300  0.24283400  0.61269200  1
  N  450  1  0.99711700  0.75166000  0.64799700  1
  N  452  1  0.02299800  0.73734100  0.61694300  1
  N  454  1  0.97924000  0.76053700  0.61273600  1
  N  492  1  0.00588100  0.75144900  0.35472400  1
  N  494  1  0.97994800  0.73715800  0.38577000  1
  N  496  1  0.02366500  0.76038600  0.38999100  1
  N  534  1  0.50641500  0.25105500  0.85473800  1
  N  536  1  0.48013100  0.26502900  0.88577300  1
  N  538  1  0.52452700  0.24244400  0.89000400  1
  N  576  1  0.49670300  0.25127700  0.14805700  1
  N  578  1  0.52303600  0.26521500  0.11702500  1
  N  580  1  0.47866800  0.24260100  0.11278800  1
  N  618  1  0.49659200  0.75141400  0.14794500  1
  N  620  1  0.52351500  0.73797300  0.11695200  1
  N  622  1  0.47818100  0.75962200  0.11267100  1
  N  660  1  0.50638500  0.75113600  0.85476400  1
  N  662  1  0.47947100  0.73773400  0.88577700  1
  N  664  1  0.52476700  0.75943000  0.89002600  1
