# generated using pymatgen
data_ErHC5(NO2)2
_symmetry_space_group_name_H-M   'P 1'
_cell_length_a   15.87300000
_cell_length_b   16.30620000
_cell_length_c   16.30620190
_cell_angle_alpha   76.29682033
_cell_angle_beta   60.87498801
_cell_angle_gamma   60.87500000
_symmetry_Int_Tables_number   1
_chemical_formula_structural   ErHC5(NO2)2
_chemical_formula_sum   'Er16 H16 C80 N32 O64'
_cell_volume   3220.69768724
_cell_formula_units_Z   16
loop_
 _symmetry_equiv_pos_site_id
 _symmetry_equiv_pos_as_xyz
  1  'x, y, z'
loop_
 _atom_site_type_symbol
 _atom_site_label
 _atom_site_symmetry_multiplicity
 _atom_site_fract_x
 _atom_site_fract_y
 _atom_site_fract_z
 _atom_site_occupancy
  Er  Er1  1  0.38415000  0.53469000  0.88016000  1.0
  Er  Er2  1  0.46264000  0.88735000  0.52625000  1.0
  Er  Er3  1  0.79901000  0.96531000  0.61984000  1.0
  Er  Er4  1  0.87624000  0.61265000  0.97375000  1.0
  Er  Er5  1  0.41884000  0.88016000  0.96532000  1.0
  Er  Er6  1  0.84999000  0.52625000  0.61265000  1.0
  Er  Er7  1  0.26432000  0.61984000  0.53468000  1.0
  Er  Er8  1  0.98889000  0.97375000  0.88735000  1.0
  Er  Er9  1  0.61585000  0.46531000  0.11984000  1.0
  Er  Er10  1  0.53736000  0.11265000  0.47375000  1.0
  Er  Er11  1  0.20099000  0.03469000  0.38016000  1.0
  Er  Er12  1  0.12376000  0.38735000  0.02625000  1.0
  Er  Er13  1  0.58116000  0.11984000  0.03468000  1.0
  Er  Er14  1  0.15001000  0.47375000  0.38735000  1.0
  Er  Er15  1  0.73568000  0.38016000  0.46532000  1.0
  Er  Er16  1  0.01111000  0.02625000  0.11265000  1.0
  H  H1  1  0.43940000  0.75410000  0.75610000  1.0
  H  H2  1  0.23730000  0.78340000  0.90360000  1.0
  H  H3  1  0.94960000  0.74590000  0.74390000  1.0
  H  H4  1  0.92430000  0.71660000  0.59640000  1.0
  H  H5  1  0.69350000  0.75610000  0.74590000  1.0
  H  H6  1  0.52070000  0.90360000  0.71660000  1.0
  H  H7  1  0.19550000  0.74390000  0.75410000  1.0
  H  H8  1  0.14090000  0.59640000  0.78340000  1.0
  H  H9  1  0.56060000  0.24590000  0.24390000  1.0
  H  H10  1  0.76270000  0.21660000  0.09640000  1.0
  H  H11  1  0.05040000  0.25410000  0.25610000  1.0
  H  H12  1  0.07570000  0.28340000  0.40360000  1.0
  H  H13  1  0.30650000  0.24390000  0.25410000  1.0
  H  H14  1  0.47930000  0.09640000  0.28340000  1.0
  H  H15  1  0.80450000  0.25610000  0.24590000  1.0
  H  H16  1  0.85910000  0.40360000  0.21660000  1.0
  C  C1  1  0.42960000  0.72660000  0.71960000  1.0
  C  C2  1  0.40320000  0.63310000  0.67290000  1.0
  C  C3  1  0.40940000  0.70440000  0.60720000  1.0
  C  C4  1  0.40520000  0.72540000  0.51700000  1.0
  C  C5  1  0.38320000  0.55230000  0.68070000  1.0
  C  C6  1  0.18910000  0.75990000  0.91670000  1.0
  C  C7  1  0.12350000  0.66250000  0.94450000  1.0
  C  C8  1  0.04410000  0.75410000  0.95130000  1.0
  C  C9  1  0.93130000  0.79380000  0.96820000  1.0
  C  C10  1  0.12930000  0.56880000  0.95560000  1.0
  C  C11  1  0.87580000  0.77340000  0.78040000  1.0
  C  C12  1  0.70920000  0.86690000  0.82710000  1.0
  C  C13  1  0.72100000  0.79560000  0.89280000  1.0
  C  C14  1  0.64760000  0.77460000  0.98300000  1.0
  C  C15  1  0.61620000  0.94770000  0.81930000  1.0
  C  C16  1  0.86570000  0.74010000  0.58330000  1.0
  C  C17  1  0.73050000  0.83750000  0.55550000  1.0
  C  C18  1  0.74950000  0.74590000  0.54870000  1.0
  C  C19  1  0.69330000  0.70620000  0.53180000  1.0
  C  C20  1  0.65370000  0.93120000  0.54440000  1.0
  C  C21  1  0.65620000  0.71960000  0.77340000  1.0
  C  C22  1  0.53630000  0.67290000  0.86690000  1.0
  C  C23  1  0.61380000  0.60720000  0.79560000  1.0
  C  C24  1  0.63060000  0.51700000  0.77460000  1.0
  C  C25  1  0.43550000  0.68070000  0.94770000  1.0
  C  C26  1  0.44900000  0.91670000  0.74010000  1.0
  C  C27  1  0.28600000  0.94450000  0.83750000  1.0
  C  C28  1  0.29820000  0.95130000  0.74590000  1.0
  C  C29  1  0.22510000  0.96820000  0.70620000  1.0
  C  C30  1  0.19810000  0.95560000  0.93120000  1.0
  C  C31  1  0.14920000  0.78040000  0.72660000  1.0
  C  C32  1  0.07610000  0.82710000  0.63310000  1.0
  C  C33  1  0.01660000  0.89280000  0.70440000  1.0
  C  C34  1  0.92220000  0.98300000  0.72540000  1.0
  C  C35  1  0.06390000  0.81930000  0.55230000  1.0
  C  C36  1  0.10580000  0.58330000  0.75990000  1.0
  C  C37  1  0.06800000  0.55550000  0.66250000  1.0
  C  C38  1  0.99540000  0.54870000  0.75410000  1.0
  C  C39  1  0.89950000  0.53180000  0.79380000  1.0
  C  C40  1  0.08490000  0.54440000  0.56880000  1.0
  C  C41  1  0.57040000  0.27340000  0.28040000  1.0
  C  C42  1  0.59680000  0.36690000  0.32710000  1.0
  C  C43  1  0.59060000  0.29560000  0.39280000  1.0
  C  C44  1  0.59480000  0.27460000  0.48300000  1.0
  C  C45  1  0.61680000  0.44770000  0.31930000  1.0
  C  C46  1  0.81090000  0.24010000  0.08330000  1.0
  C  C47  1  0.87650000  0.33750000  0.05550000  1.0
  C  C48  1  0.95590000  0.24590000  0.04870000  1.0
  C  C49  1  0.06870000  0.20620000  0.03180000  1.0
  C  C50  1  0.87070000  0.43120000  0.04440000  1.0
  C  C51  1  0.12420000  0.22660000  0.21960000  1.0
  C  C52  1  0.29080000  0.13310000  0.17290000  1.0
  C  C53  1  0.27900000  0.20440000  0.10720000  1.0
  C  C54  1  0.35240000  0.22540000  0.01700000  1.0
  C  C55  1  0.38380000  0.05230000  0.18070000  1.0
  C  C56  1  0.13430000  0.25990000  0.41670000  1.0
  C  C57  1  0.26950000  0.16250000  0.44450000  1.0
  C  C58  1  0.25050000  0.25410000  0.45130000  1.0
  C  C59  1  0.30670000  0.29380000  0.46820000  1.0
  C  C60  1  0.34630000  0.06880000  0.45560000  1.0
  C  C61  1  0.34380000  0.28040000  0.22660000  1.0
  C  C62  1  0.46370000  0.32710000  0.13310000  1.0
  C  C63  1  0.38620000  0.39280000  0.20440000  1.0
  C  C64  1  0.36940000  0.48300000  0.22540000  1.0
  C  C65  1  0.56450000  0.31930000  0.05230000  1.0
  C  C66  1  0.55100000  0.08330000  0.25990000  1.0
  C  C67  1  0.71400000  0.05550000  0.16250000  1.0
  C  C68  1  0.70180000  0.04870000  0.25410000  1.0
  C  C69  1  0.77490000  0.03180000  0.29380000  1.0
  C  C70  1  0.80190000  0.04440000  0.06880000  1.0
  C  C71  1  0.85080000  0.21960000  0.27340000  1.0
  C  C72  1  0.92390000  0.17290000  0.36690000  1.0
  C  C73  1  0.98340000  0.10720000  0.29560000  1.0
  C  C74  1  0.07780000  0.01700000  0.27460000  1.0
  C  C75  1  0.93610000  0.18070000  0.44770000  1.0
  C  C76  1  0.89420000  0.41670000  0.24010000  1.0
  C  C77  1  0.93200000  0.44450000  0.33750000  1.0
  C  C78  1  0.00460000  0.45130000  0.24590000  1.0
  C  C79  1  0.10050000  0.46820000  0.20620000  1.0
  C  C80  1  0.91510000  0.45560000  0.43120000  1.0
  N  N1  1  0.42600000  0.76360000  0.63820000  1.0
  N  N2  1  0.41800000  0.64660000  0.74440000  1.0
  N  N3  1  0.21700000  0.66810000  0.91990000  1.0
  N  N4  1  0.08760000  0.81540000  0.93340000  1.0
  N  N5  1  0.82780000  0.73640000  0.86180000  1.0
  N  N6  1  0.80900000  0.85340000  0.75560000  1.0
  N  N7  1  0.80500000  0.83190000  0.58010000  1.0
  N  N8  1  0.83640000  0.68460000  0.56660000  1.0
  N  N9  1  0.68960000  0.63820000  0.73640000  1.0
  N  N10  1  0.56460000  0.74440000  0.85340000  1.0
  N  N11  1  0.38510000  0.91990000  0.83190000  1.0
  N  N12  1  0.40300000  0.93340000  0.68460000  1.0
  N  N13  1  0.06420000  0.86180000  0.76360000  1.0
  N  N14  1  0.16240000  0.75560000  0.64660000  1.0
  N  N15  1  0.13690000  0.58010000  0.66810000  1.0
  N  N16  1  0.02100000  0.56660000  0.81540000  1.0
  N  N17  1  0.57400000  0.23640000  0.36180000  1.0
  N  N18  1  0.58200000  0.35340000  0.25560000  1.0
  N  N19  1  0.78300000  0.33190000  0.08010000  1.0
  N  N20  1  0.91240000  0.18460000  0.06660000  1.0
  N  N21  1  0.17220000  0.26360000  0.13820000  1.0
  N  N22  1  0.19100000  0.14660000  0.24440000  1.0
  N  N23  1  0.19500000  0.16810000  0.41990000  1.0
  N  N24  1  0.16360000  0.31540000  0.43340000  1.0
  N  N25  1  0.31040000  0.36180000  0.26360000  1.0
  N  N26  1  0.43540000  0.25560000  0.14660000  1.0
  N  N27  1  0.61490000  0.08010000  0.16810000  1.0
  N  N28  1  0.59700000  0.06660000  0.31540000  1.0
  N  N29  1  0.93580000  0.13820000  0.23640000  1.0
  N  N30  1  0.83760000  0.24440000  0.35340000  1.0
  N  N31  1  0.86310000  0.41990000  0.33190000  1.0
  N  N32  1  0.97900000  0.43340000  0.18460000  1.0
  O  O1  1  0.42370000  0.79630000  0.47170000  1.0
  O  O2  1  0.38310000  0.68100000  0.48280000  1.0
  O  O3  1  0.35150000  0.54420000  0.62760000  1.0
  O  O4  1  0.39680000  0.49440000  0.74560000  1.0
  O  O5  1  0.88850000  0.88160000  0.95620000  1.0
  O  O6  1  0.88460000  0.74240000  0.99440000  1.0
  O  O7  1  0.04740000  0.55290000  0.98790000  1.0
  O  O8  1  0.22110000  0.50030000  0.93310000  1.0
  O  O9  1  0.69170000  0.70370000  0.02830000  1.0
  O  O10  1  0.54690000  0.81900000  0.01720000  1.0
  O  O11  1  0.52330000  0.95580000  0.87240000  1.0
  O  O12  1  0.63680000  0.00560000  0.75440000  1.0
  O  O13  1  0.72630000  0.61840000  0.54380000  1.0
  O  O14  1  0.62140000  0.75760000  0.50560000  1.0
  O  O15  1  0.58820000  0.94710000  0.51210000  1.0
  O  O16  1  0.65450000  0.99970000  0.56690000  1.0
  O  O17  1  0.72000000  0.47170000  0.70370000  1.0
  O  O18  1  0.56410000  0.48280000  0.81900000  1.0
  O  O19  1  0.39570000  0.62760000  0.95580000  1.0
  O  O20  1  0.39120000  0.74560000  0.00560000  1.0
  O  O21  1  0.27010000  0.95620000  0.61840000  1.0
  O  O22  1  0.12700000  0.99440000  0.75760000  1.0
  O  O23  1  0.10030000  0.98790000  0.94710000  1.0
  O  O24  1  0.22140000  0.93310000  0.99970000  1.0
  O  O25  1  0.89540000  0.02830000  0.79630000  1.0
  O  O26  1  0.86590000  0.01720000  0.68100000  1.0
  O  O27  1  0.97910000  0.87240000  0.54420000  1.0
  O  O28  1  0.14240000  0.75440000  0.49440000  1.0
  O  O29  1  0.84470000  0.54380000  0.88160000  1.0
  O  O30  1  0.87900000  0.50560000  0.74240000  1.0
  O  O31  1  0.03530000  0.51210000  0.55290000  1.0
  O  O32  1  0.15420000  0.56690000  0.50030000  1.0
  O  O33  1  0.57630000  0.20370000  0.52830000  1.0
  O  O34  1  0.61690000  0.31900000  0.51720000  1.0
  O  O35  1  0.64850000  0.45580000  0.37240000  1.0
  O  O36  1  0.60320000  0.50560000  0.25440000  1.0
  O  O37  1  0.11150000  0.11840000  0.04380000  1.0
  O  O38  1  0.11540000  0.25760000  0.00560000  1.0
  O  O39  1  0.95260000  0.44710000  0.01210000  1.0
  O  O40  1  0.77890000  0.49970000  0.06690000  1.0
  O  O41  1  0.30830000  0.29630000  0.97170000  1.0
  O  O42  1  0.45310000  0.18100000  0.98280000  1.0
  O  O43  1  0.47670000  0.04420000  0.12760000  1.0
  O  O44  1  0.36320000  0.99440000  0.24560000  1.0
  O  O45  1  0.27370000  0.38160000  0.45620000  1.0
  O  O46  1  0.37860000  0.24240000  0.49440000  1.0
  O  O47  1  0.41180000  0.05290000  0.48790000  1.0
  O  O48  1  0.34550000  0.00030000  0.43310000  1.0
  O  O49  1  0.28000000  0.52830000  0.29630000  1.0
  O  O50  1  0.43590000  0.51720000  0.18100000  1.0
  O  O51  1  0.60430000  0.37240000  0.04420000  1.0
  O  O52  1  0.60880000  0.25440000  0.99440000  1.0
  O  O53  1  0.72990000  0.04380000  0.38160000  1.0
  O  O54  1  0.87300000  0.00560000  0.24240000  1.0
  O  O55  1  0.89970000  0.01210000  0.05290000  1.0
  O  O56  1  0.77860000  0.06690000  0.00030000  1.0
  O  O57  1  0.10460000  0.97170000  0.20370000  1.0
  O  O58  1  0.13410000  0.98280000  0.31900000  1.0
  O  O59  1  0.02090000  0.12760000  0.45580000  1.0
  O  O60  1  0.85760000  0.24560000  0.50560000  1.0
  O  O61  1  0.15530000  0.45620000  0.11840000  1.0
  O  O62  1  0.12100000  0.49440000  0.25760000  1.0
  O  O63  1  0.96470000  0.48790000  0.44710000  1.0
  O  O64  1  0.84580000  0.43310000  0.49970000  1.0
