# generated using pymatgen
data_H21C26N3
_symmetry_space_group_name_H-M   'P 1'
_cell_length_a   11.30927591
_cell_length_b   11.31138812
_cell_length_c   43.39380000
_cell_angle_alpha   89.28751534
_cell_angle_beta   89.56701165
_cell_angle_gamma   89.99982090
_symmetry_Int_Tables_number   1
_chemical_formula_structural   H21C26N3
_chemical_formula_sum   'H84 C104 N12'
_cell_volume   5550.50380312
_cell_formula_units_Z   4
loop_
 _symmetry_equiv_pos_site_id
 _symmetry_equiv_pos_as_xyz
  1  'x, y, z'
loop_
 _atom_site_type_symbol
 _atom_site_label
 _atom_site_symmetry_multiplicity
 _atom_site_fract_x
 _atom_site_fract_y
 _atom_site_fract_z
 _atom_site_occupancy
  C  1  1  0.89680700  0.05027100  0.77962900  1
  C  2  1  0.97566750  0.13746150  0.76016100  1
  C  3  1  0.97946150  0.96178150  0.79755000  1
  C  4  1  0.05901650  0.89029650  0.77461200  1
  C  7  1  0.13641350  0.97966950  0.75532800  1
  C  8  1  0.05627550  0.06840550  0.73694600  1
  C  13  1  0.97490900  0.99602100  0.71492000  1
  C  14  1  0.89474300  0.90778500  0.73389200  1
  C  17  1  0.97610200  0.82083800  0.75240400  1
  C  20  1  0.81688150  0.97877750  0.75725300  1
  C  27  1  0.04847400  0.07221000  0.28176300  1
  C  28  1  0.13420150  0.99456150  0.26207800  1
  C  29  1  0.95892300  0.98871700  0.29935000  1
  C  30  1  0.88589150  0.91338150  0.27608900  1
  C  33  1  0.97376850  0.83705850  0.25655400  1
  C  34  1  0.06372350  0.91808550  0.23853600  1
  C  39  1  0.99247550  0.00347150  0.21676300  1
  C  40  1  0.90559550  0.08257150  0.23595700  1
  C  43  1  0.81748350  0.00021950  0.25413400  1
  C  46  1  0.97799350  0.15613950  0.25965800  1
  C  54  1  0.40167800  0.53124200  0.84591000  1
  C  55  1  0.45414149  0.48000751  0.89911600  1
  C  56  1  0.54876100  0.37657900  0.85646300  1
  C  57  1  0.55123900  0.51805700  0.91658400  1
  C  58  1  0.54138700  0.52767300  0.94874900  1
  C  59  1  0.43297450  0.50357250  0.96423300  1
  C  60  1  0.33529000  0.46793800  0.94630800  1
  C  61  1  0.34582550  0.45574750  0.91418300  1
  C  62  1  0.42034250  0.65440450  0.84359900  1
  C  63  1  0.35410050  0.72359050  0.82282900  1
  C  64  1  0.26870600  0.67019600  0.80389400  1
  C  65  1  0.25111700  0.54669500  0.80591400  1
  C  66  1  0.31644200  0.47798200  0.82698700  1
  C  67  1  0.65174600  0.41249000  0.84037600  1
  C  68  1  0.73490900  0.32830100  0.83055100  1
  C  69  1  0.71693600  0.20659000  0.83688000  1
  C  70  1  0.61434850  0.17091450  0.85330300  1
  C  71  1  0.53066700  0.25524500  0.86283900  1
  C  84  1  0.79707200  0.12358200  0.82678300  1
  C  85  1  0.20639800  0.73659000  0.78286500  1
  C  86  1  0.42294000  0.50234200  0.99632400  1
  C  91  1  0.53206100  0.56049100  0.34707400  1
  C  92  1  0.48669688  0.50092488  0.40025800  1
  C  93  1  0.38037990  0.40956390  0.35821500  1
  C  94  1  0.53805540  0.40601340  0.41676900  1
  C  95  1  0.55203088  0.41238488  0.44886000  1
  C  96  1  0.51485100  0.51410500  0.46485000  1
  C  97  1  0.46655300  0.61046300  0.44817600  1
  C  98  1  0.45223000  0.60364000  0.41608500  1
  C  99  1  0.65529750  0.54400750  0.34412900  1
  C  100  1  0.72177550  0.61413150  0.32337200  1
  C  101  1  0.66564200  0.70136000  0.30504500  1
  C  102  1  0.54199300  0.71662900  0.30764000  1
  C  103  1  0.47595750  0.64740750  0.32873100  1
  C  104  1  0.41542140  0.30804140  0.34197400  1
  C  105  1  0.33068050  0.22535250  0.33249900  1
  C  106  1  0.20937950  0.24242750  0.33933000  1
  C  107  1  0.17462500  0.34352700  0.35591500  1
  C  108  1  0.25946840  0.42664840  0.36512700  1
  C  121  1  0.12559450  0.16370450  0.32925200  1
  C  122  1  0.72977750  0.76748550  0.28405400  1
  C  123  1  0.52165000  0.51849600  0.49653300  1
  C  128  1  0.43708050  0.59736650  0.16549000  1
  C  129  1  0.50005650  0.54500050  0.11315200  1
  C  130  1  0.60079150  0.45952950  0.15785600  1
  C  131  1  0.47008100  0.44480100  0.09588200  1
  C  132  1  0.46369250  0.45224850  0.06359600  1
  C  133  1  0.48298750  0.56104950  0.04775100  1
  C  134  1  0.51117600  0.66157000  0.06542800  1
  C  135  1  0.52008350  0.65360750  0.09770800  1
  C  136  1  0.31549550  0.56970550  0.16715600  1
  C  137  1  0.24058550  0.62965750  0.18775300  1
  C  138  1  0.28672850  0.71780850  0.20705800  1
  C  139  1  0.40842750  0.74540350  0.20542600  1
  C  140  1  0.48276650  0.68621050  0.18458400  1
  C  141  1  0.56772850  0.35408650  0.17326100  1
  C  142  1  0.65418600  0.27930000  0.18604600  1
  C  143  1  0.77609850  0.30810250  0.18386500  1
  C  144  1  0.80822200  0.41345000  0.16788700  1
  C  145  1  0.72170550  0.48819550  0.15501500  1
  C  158  1  0.86292950  0.23912750  0.19785300  1
  C  159  1  0.21611150  0.77188350  0.22851000  1
  C  160  1  0.48640650  0.56928650  0.01563700  1
  C  165  1  0.39234990  0.43351990  0.66365600  1
  C  166  1  0.45692390  0.48775790  0.61133800  1
  C  167  1  0.53414350  0.59447550  0.65534900  1
  C  168  1  0.55691788  0.44272588  0.59580000  1
  C  169  1  0.55556438  0.42890838  0.56366100  1
  C  170  1  0.45391440  0.46003640  0.54663100  1
  C  171  1  0.35282990  0.50240790  0.56232600  1
  C  172  1  0.35459390  0.51660790  0.59446800  1
  C  173  1  0.41770440  0.31184240  0.66684800  1
  C  174  1  0.35216250  0.24064250  0.68757400  1
  C  175  1  0.26063800  0.29059800  0.70551600  1
  C  176  1  0.23542190  0.41242590  0.70240300  1
  C  177  1  0.30019840  0.48305840  0.68139300  1
  C  178  1  0.63628800  0.56344000  0.67196600  1
  C  179  1  0.70802400  0.65160000  0.68464900  1
  C  180  1  0.67932550  0.77315350  0.68115300  1
  C  181  1  0.57752900  0.80312900  0.66389500  1
  C  182  1  0.50588400  0.71493200  0.65112000  1
  C  195  1  0.74436300  0.86174300  0.69520000  1
  C  196  1  0.20125350  0.22321950  0.72710200  1
  C  197  1  0.45290340  0.45078540  0.51496400  1
  H  5  1  0.92559150  0.90046750  0.81142600  1
  H  6  1  0.03519400  0.01079000  0.81348900  1
  H  9  1  0.19463250  0.02782050  0.77082400  1
  H  10  1  0.19324950  0.93196950  0.73917700  1
  H  11  1  0.03015550  0.18930550  0.77576100  1
  H  12  1  0.92011250  0.20015450  0.74737900  1
  H  15  1  0.02906500  0.94693900  0.69841800  1
  H  16  1  0.91943950  0.05675550  0.70153600  1
  H  18  1  0.02923450  0.76920450  0.73622900  1
  H  19  1  0.92221150  0.75788750  0.76579900  1
  H  21  1  0.75840250  0.03916850  0.74464400  1
  H  22  1  0.76024250  0.91803650  0.77055000  1
  H  31  1  0.89868850  0.04175250  0.31340700  1
  H  32  1  0.00726700  0.93014300  0.31509600  1
  H  35  1  0.02106700  0.77600100  0.27185500  1
  H  36  1  0.92495650  0.78322050  0.24016500  1
  H  37  1  0.18533650  0.93729450  0.27752200  1
  H  38  1  0.19767400  0.05076800  0.24954100  1
  H  41  1  0.94244800  0.95226800  0.20003500  1
  H  42  1  0.05401350  0.05965750  0.20362600  1
  H  44  1  0.76486700  0.94999900  0.23775400  1
  H  45  1  0.75551700  0.05334700  0.26768100  1
  H  47  1  0.03920700  0.21531700  0.24731700  1
  H  48  1  0.91824500  0.21193500  0.27313000  1
  H  72  1  0.63105850  0.53399250  0.90609100  1
  H  73  1  0.25604600  0.44712000  0.95659800  1
  H  74  1  0.27493300  0.42668100  0.90188800  1
  H  75  1  0.61581950  0.54891750  0.96071400  1
  H  76  1  0.30199950  0.38880750  0.82841300  1
  H  77  1  0.48215150  0.69414550  0.85709100  1
  H  78  1  0.36952350  0.81273550  0.82146300  1
  H  79  1  0.19020850  0.50594050  0.79229300  1
  H  80  1  0.66677650  0.50021450  0.83587900  1
  H  81  1  0.59888500  0.08335700  0.85809600  1
  H  82  1  0.45673350  0.22798950  0.87464600  1
  H  83  1  0.80886350  0.35672150  0.81887500  1
  H  87  1  0.83101900  0.06574500  0.84166500  1
  H  88  1  0.21999050  0.72260850  0.76055100  1
  H  89  1  0.36506550  0.44556950  0.00551900  1
  H  109  1  0.56305040  0.33090640  0.40556400  1
  H  110  1  0.43824900  0.68472700  0.45930700  1
  H  111  1  0.41399550  0.67259750  0.40439300  1
  H  112  1  0.58715040  0.34144440  0.46048000  1
  H  113  1  0.38669500  0.66030700  0.33060900  1
  H  114  1  0.69715050  0.48102250  0.35717600  1
  H  115  1  0.81104550  0.60020350  0.32157700  1
  H  116  1  0.49924350  0.77880150  0.29446900  1
  H  117  1  0.50283190  0.29389990  0.33704200  1
  H  118  1  0.08735550  0.35845550  0.36100900  1
  H  119  1  0.23282190  0.49967190  0.37699000  1
  H  120  1  0.35834250  0.15263250  0.32060700  1
  H  124  1  0.06884900  0.12756500  0.34418000  1
  H  125  1  0.71412050  0.75731050  0.26174000  1
  H  126  1  0.57585800  0.57788800  0.50557900  1
  H  146  1  0.45700000  0.36490000  0.10667100  1
  H  147  1  0.52832250  0.74132850  0.05488400  1
  H  148  1  0.54309150  0.72686550  0.10988100  1
  H  149  1  0.44782300  0.37612700  0.05184600  1
  H  150  1  0.57081350  0.70679350  0.18372500  1
  H  151  1  0.28142100  0.50477100  0.15363900  1
  H  152  1  0.15299650  0.60691050  0.18893600  1
  H  153  1  0.44402800  0.80814400  0.21942900  1
  H  154  1  0.48036050  0.33177850  0.17539300  1
  H  155  1  0.89514267  0.43813667  0.16589500  1
  H  156  1  0.74701350  0.56455350  0.14394300  1
  H  157  1  0.62653800  0.20415600  0.19733200  1
  H  161  1  0.94777850  0.25801250  0.19413100  1
  H  162  1  0.22805850  0.75192650  0.25063500  1
  H  163  1  0.54173400  0.62863400  0.00649100  1
  H  183  1  0.63153900  0.42116900  0.60779600  1
  H  184  1  0.27829740  0.52589940  0.55046400  1
  H  185  1  0.28176640  0.54983640  0.60547300  1
  H  186  1  0.62962350  0.39736950  0.55280300  1
  H  187  1  0.28128490  0.57124890  0.67944800  1
  H  188  1  0.48503240  0.27498040  0.65437400  1
  H  189  1  0.37336850  0.15296050  0.68987400  1
  H  190  1  0.17031890  0.45076890  0.71542700  1
  H  191  1  0.65802650  0.47639250  0.67518600  1
  H  192  1  0.55286450  0.88965050  0.66098900  1
  H  193  1  0.43157500  0.73873100  0.63926500  1
  H  194  1  0.78057500  0.62544300  0.69692900  1
  H  198  1  0.72462250  0.94613650  0.69108000  1
  H  199  1  0.21755950  0.23666150  0.74925500  1
  H  200  1  0.39464040  0.39555440  0.50582100  1
  N  23  1  0.12534250  0.14564050  0.71872700  1
  N  24  1  0.82388300  0.83720700  0.71527500  1
  N  25  1  0.82259500  0.11982300  0.79795500  1
  N  26  1  0.13085100  0.81376100  0.79200100  1
  N  49  1  0.14062300  0.85079700  0.22020400  1
  N  50  1  0.83634400  0.15723200  0.21750000  1
  N  51  1  0.11946850  0.14297050  0.30031600  1
  N  52  1  0.80901800  0.84018800  0.29325900  1
  N  53  1  0.46694400  0.46181200  0.86708300  1
  N  90  1  0.46583040  0.49132240  0.36835400  1
  N  127  1  0.51339549  0.53540351  0.14543600  1
  N  164  1  0.46008588  0.50573788  0.64342900  1
