# generated using pymatgen
data_V4H27C47NO24
_symmetry_space_group_name_H-M   'P 1'
_cell_length_a   6.94551000
_cell_length_b   13.64938000
_cell_length_c   20.40462000
_cell_angle_alpha   102.05245000
_cell_angle_beta   90.04888000
_cell_angle_gamma   91.01446000
_symmetry_Int_Tables_number   1
_chemical_formula_structural   V4H27C47NO24
_chemical_formula_sum   'V4 H27 C47 N1 O24'
_cell_volume   1891.43968410
_cell_formula_units_Z   1
loop_
 _symmetry_equiv_pos_site_id
 _symmetry_equiv_pos_as_xyz
  1  'x, y, z'
loop_
 _atom_site_type_symbol
 _atom_site_label
 _atom_site_symmetry_multiplicity
 _atom_site_fract_x
 _atom_site_fract_y
 _atom_site_fract_z
 _atom_site_occupancy
  V  V0  1  0.06468000  0.51180000  0.50222000  1
  V  V1  1  0.56401000  0.48820000  0.49778000  1
  V  V2  1  0.64817000  0.98820000  0.99778000  1
  V  V3  1  0.14881000  0.01193000  0.00218000  1
  H  H4  1  0.75903000  0.16575000  0.52239000  1
  H  H5  1  0.71268000  0.99626000  0.70048000  1
  H  H6  1  0.71883000  0.04064000  0.59173000  1
  H  H7  1  0.91353000  0.39030000  0.69387000  1
  H  H8  1  0.94922000  0.33203000  0.98142000  1
  H  H9  1  0.93978000  0.42914000  0.79753000  1
  H  H10  1  0.98454000  0.46429000  0.91704000  1
  H  H11  1  0.75370000  0.03882000  0.82058000  1
  H  H12  1  0.11891000  0.27898000  0.31938000  1
  H  H13  1  0.15300000  0.21600000  0.19504000  1
  H  H14  1  0.72073000  0.17389000  0.20705000  1
  H  H15  1  0.48065000  0.76449000  0.80900000  1
  H  H16  1  0.06808000  0.67882000  0.69767000  1
  H  H17  1  0.50200000  0.71978000  0.69548000  1
  H  H18  1  0.39407000  0.83719000  0.48112000  1
  H  H19  1  0.42449000  0.96512000  0.41550000  1
  H  H20  1  0.32859000  0.60933000  0.30517000  1
  H  H21  1  0.30373000  0.66737000  0.01855000  1
  H  H22  1  0.30739000  0.57110000  0.20242000  1
  H  H23  1  0.27738000  0.53455000  0.08281000  1
  H  H24  1  0.42637000  0.96824000  0.18133000  1
  H  H25  1  0.59520000  0.39239000  0.18418000  1
  H  H26  1  0.05878000  0.92964000  0.80281000  1
  H  H27  1  0.73641000  0.87015000  0.78227000  1
  H  H28  1  0.81539000  0.74346000  0.76557000  1
  H  H29  1  0.86714000  0.82397000  0.70638000  1
  H  H30  1  0.65177000  0.14018000  0.37221000  1
  C  C31  1  0.34971000  0.61563000  0.61360000  1
  C  C32  1  0.34740000  0.63807000  0.43534000  1
  C  C33  1  0.83881000  0.38761000  0.38534000  1
  C  C34  1  0.84182000  0.36223000  0.56493000  1
  C  C35  1  0.76253000  0.11641000  0.61543000  1
  C  C36  1  0.84282000  0.28520000  0.60500000  1
  C  C37  1  0.92221000  0.31420000  0.92788000  1
  C  C38  1  0.94390000  0.38904000  0.89148000  1
  C  C39  1  0.91799000  0.36740000  0.82218000  1
  C  C40  1  0.86667000  0.26939000  0.78736000  1
  C  C41  1  0.83738000  0.19393000  0.82550000  1
  C  C42  1  0.84463000  0.24347000  0.71607000  1
  C  C43  1  0.78903000  0.14369000  0.68509000  1
  C  C44  1  0.75715000  0.07203000  0.72378000  1
  C  C45  1  0.78110000  0.09666000  0.79277000  1
  C  C46  1  0.87368000  0.31309000  0.67424000  1
  C  C47  1  0.78686000  0.18709000  0.57579000  1
  C  C48  1  0.86878000  0.21680000  0.89574000  1
  C  C49  1  0.99457000  0.28129000  0.28746000  1
  C  C50  1  0.83999000  0.33523000  0.31363000  1
  C  C51  1  0.01054000  0.22288000  0.21723000  1
  C  C52  1  0.86033000  0.17301000  0.18313000  1
  C  C53  1  0.20045000  0.79381000  0.77935000  1
  C  C54  1  0.35464000  0.81028000  0.82135000  1
  C  C55  1  0.20421000  0.71358000  0.71653000  1
  C  C56  1  0.36243000  0.68662000  0.67931000  1
  C  C57  1  0.40863000  0.88830000  0.38871000  1
  C  C58  1  0.36070000  0.71546000  0.39563000  1
  C  C59  1  0.31897000  0.68647000  0.07261000  1
  C  C60  1  0.30379000  0.61126000  0.10884000  1
  C  C61  1  0.32148000  0.63392000  0.17840000  1
  C  C62  1  0.35534000  0.73379000  0.21399000  1
  C  C63  1  0.37262000  0.81026000  0.17636000  1
  C  C64  1  0.37036000  0.76013000  0.28542000  1
  C  C65  1  0.40469000  0.86234000  0.31794000  1
  C  C66  1  0.42894000  0.93646000  0.27922000  1
  C  C67  1  0.40884000  0.90983000  0.20967000  1
  C  C68  1  0.35087000  0.68796000  0.32590000  1
  C  C69  1  0.38821000  0.81547000  0.42694000  1
  C  C70  1  0.35379000  0.78558000  0.10555000  1
  C  C71  1  0.36581000  0.86226000  0.06496000  1
  C  C72  1  0.36303000  0.88388000  0.88642000  1
  C  C73  1  0.87073000  0.13825000  0.93525000  1
  C  C74  1  0.87315000  0.11332000  0.11413000  1
  C  C75  1  0.67812000  0.35575000  0.27067000  1
  C  C76  1  0.85422000  0.82063000  0.76014000  1
  C  C77  1  0.48087000  0.04259000  0.30895000  1
  N  N78  1  0.03241000  0.85348000  0.79531000  1
  O  O79  1  0.50686000  0.59939000  0.44924000  1
  O  O80  1  0.18022000  0.59460000  0.58678000  1
  O  O81  1  0.00450000  0.40061000  0.55076000  1
  O  O82  1  0.17749000  0.61129000  0.45197000  1
  O  O83  1  0.00175000  0.41742000  0.41499000  1
  O  O84  1  0.50961000  0.58258000  0.58501000  1
  O  O85  1  0.33742000  0.43637000  0.48802000  1
  O  O86  1  0.67171000  0.40540000  0.41322000  1
  O  O87  1  0.67444000  0.38871000  0.54803000  1
  O  O88  1  0.84114000  0.56363000  0.51198000  1
  O  O89  1  0.20323000  0.91731000  0.91502000  1
  O  O90  1  0.53550000  0.88869000  0.04804000  1
  O  O91  1  0.71108000  0.08261000  0.08500000  1
  O  O92  1  0.53263000  0.90537000  0.91323000  1
  O  O93  1  0.70819000  0.09941000  0.94923000  1
  O  O94  1  0.20612000  0.90051000  0.05079000  1
  O  O95  1  0.37536000  0.06357000  0.01199000  1
  O  O96  1  0.03824000  0.11139000  0.95194000  1
  O  O97  1  0.04112000  0.09471000  0.08675000  1
  O  O98  1  0.87175000  0.93643000  0.98801000  1
  O  O99  1  0.51206000  0.35465000  0.29042000  1
  O  O100  1  0.71655000  0.37919000  0.20837000  1
  O  O101  1  0.40056000  0.11017000  0.28923000  1
  O  O102  1  0.62770000  0.06537000  0.35696000  1
