# generated using pymatgen
data_H25(C21N2)2
_symmetry_space_group_name_H-M   'P 1'
_cell_length_a   9.98000000
_cell_length_b   58.67860000
_cell_length_c   58.67860000
_cell_angle_alpha   60.00000000
_cell_angle_beta   90.11320000
_cell_angle_gamma   90.00000000
_symmetry_Int_Tables_number   1
_chemical_formula_structural   H25(C21N2)2
_chemical_formula_sum   'H150 C252 N24'
_cell_volume   29759.08198975
_cell_formula_units_Z   6
loop_
 _symmetry_equiv_pos_site_id
 _symmetry_equiv_pos_as_xyz
  1  'x, y, z'
loop_
 _atom_site_type_symbol
 _atom_site_label
 _atom_site_symmetry_multiplicity
 _atom_site_fract_x
 _atom_site_fract_y
 _atom_site_fract_z
 _atom_site_occupancy
  C  1  1  0.00736000  0.51360867  0.46681367  1
  C  2  1  0.00396900  0.49527367  0.49372100  1
  C  3  1  0.00678900  0.39698200  0.59193400  1
  C  4  1  0.01003400  0.37005033  0.61020600  1
  C  19  1  0.00969400  0.50004700  0.45320600  1
  C  20  1  0.00657900  0.47311700  0.47147633  1
  C  22  1  0.00093200  0.50161733  0.51415567  1
  C  23  1  0.00094700  0.48292233  0.54150233  1
  C  25  1  0.00394800  0.44472367  0.57968700  1
  C  26  1  0.99999300  0.46512333  0.58543333  1
  C  27  1  0.99832600  0.48864133  0.56192600  1
  C  28  1  0.00653400  0.41737100  0.59836067  1
  C  30  1  0.00406300  0.37482800  0.56968933  1
  C  31  1  0.00761000  0.35649100  0.59659933  1
  C  32  1  0.00084300  0.36847867  0.54925700  1
  C  33  1  0.00070600  0.38717167  0.52191200  1
  C  35  1  0.00372600  0.42537000  0.48373233  1
  C  36  1  0.99987833  0.40496667  0.47798567  1
  C  37  1  0.99814500  0.38144933  0.50149100  1
  C  38  1  0.00633800  0.45272267  0.46505867  1
  C  39  1  0.00913300  0.46008933  0.43793667  1
  C  40  1  0.13030000  0.45916500  0.42603900  1
  C  41  1  0.13157400  0.46459733  0.39981367  1
  C  42  1  0.01226400  0.47128967  0.38470233  1
  C  43  1  0.89172300  0.47273467  0.39662167  1
  C  44  1  0.88987800  0.46704867  0.42294100  1
  C  45  1  0.01224400  0.47520767  0.35865333  1
  C  46  1  0.94518900  0.49683767  0.33774900  1
  C  47  1  0.94146800  0.49998133  0.31233667  1
  C  48  1  0.00324100  0.48142667  0.30703400  1
  C  49  1  0.07133300  0.45994367  0.32788033  1
  C  50  1  0.07609700  0.45693200  0.35319900  1
  C  51  1  0.99683700  0.34137867  0.55660867  1
  C  52  1  0.11635700  0.32679233  0.56136467  1
  C  53  1  0.11213100  0.30041500  0.56726167  1
  C  54  1  0.98872700  0.28797467  0.56835300  1
  C  55  1  0.86939100  0.30272567  0.56384767  1
  C  56  1  0.87315500  0.32904267  0.55810133  1
  C  57  1  0.98497800  0.26170567  0.57282100  1
  C  58  1  0.06333700  0.24137200  0.59277200  1
  C  59  1  0.06162400  0.21569967  0.59656000  1
  C  60  1  0.98118600  0.20947433  0.58055200  1
  C  61  1  0.90363200  0.22980833  0.56049267  1
  C  62  1  0.90502900  0.25541067  0.55677967  1
  C  63  1  0.00915300  0.40997733  0.62549267  1
  C  64  1  0.89002500  0.40277633  0.64042933  1
  C  65  1  0.89186200  0.39677467  0.66684667  1
  C  66  1  0.01226900  0.39811833  0.67893833  1
  C  67  1  0.13141700  0.40511467  0.66386433  1
  C  68  1  0.13016000  0.41086433  0.63753600  1
  C  69  1  0.01232500  0.39368933  0.70517433  1
  C  70  1  0.07544000  0.41170333  0.71110800  1
  C  71  1  0.07090800  0.40813467  0.73664700  1
  C  72  1  0.00363700  0.38635600  0.75722567  1
  C  73  1  0.94263900  0.36806500  0.75143767  1
  C  74  1  0.94620100  0.37175467  0.72581500  1
  C  75  1  0.99688300  0.52871167  0.50682767  1
  C  76  1  0.87314100  0.54109867  0.50518967  1
  C  77  1  0.11644700  0.54316133  0.50250233  1
  C  78  1  0.11220600  0.56944067  0.49691967  1
  C  79  1  0.98874100  0.58190500  0.49574833  1
  C  80  1  0.86935700  0.56731333  0.49976233  1
  C  81  1  0.98497800  0.60798600  0.49179333  1
  C  82  1  0.90448800  0.61391733  0.50799333  1
  C  83  1  0.90316500  0.63930167  0.50483400  1
  C  84  1  0.98150600  0.65977067  0.48521500  1
  C  85  1  0.06251600  0.65390633  0.46905467  1
  C  86  1  0.06409400  0.62845333  0.47227933  1
  C  127  1  0.00333700  0.36661067  0.01981400  1
  C  128  1  0.00558200  0.35299933  0.04698433  1
  C  129  1  0.00237500  0.37127067  0.05564400  1
  C  131  1  0.99996900  0.39351967  0.01124100  1
  C  132  1  0.99694300  0.41395667  0.98446000  1
  C  133  1  0.99686700  0.44130367  0.97581267  1
  C  135  1  0.99987833  0.47948267  0.97583467  1
  C  136  1  0.99600500  0.48523567  0.94968300  1
  C  137  1  0.99436200  0.46173033  0.94966900  1
  C  138  1  0.00233300  0.49815300  0.98451733  1
  C  139  1  0.00250600  0.49172467  0.01133300  1
  C  141  1  0.99996900  0.46947800  0.05573133  1
  C  142  1  0.00333600  0.49638567  0.04716200  1
  C  143  1  0.00566000  0.50999400  0.01999700  1
  C  144  1  0.99688300  0.44904633  0.08251100  1
  C  145  1  0.99671600  0.42170200  0.09116000  1
  C  147  1  0.99955800  0.38352300  0.09113733  1
  C  148  1  0.99580400  0.37777567  0.11728600  1
  C  149  1  0.99426100  0.40128033  0.11730133  1
  C  150  1  0.00211900  0.36484967  0.08245700  1
  C  151  1  0.00497500  0.33772433  0.10221267  1
  C  152  1  0.12619400  0.32575167  0.11509233  1
  C  153  1  0.12753000  0.29952933  0.13589333  1
  C  154  1  0.00826100  0.28448567  0.14424067  1
  C  155  1  0.88766300  0.29648533  0.13082133  1
  C  156  1  0.88576500  0.32279567  0.11016733  1
  C  157  1  0.00829700  0.25844133  0.16637900  1
  C  158  1  0.94126700  0.23757267  0.16562000  1
  C  159  1  0.93754900  0.21217000  0.18789533  1
  C  160  1  0.99934500  0.20683733  0.21178900  1
  C  161  1  0.06753500  0.22763933  0.21245133  1
  C  162  1  0.07215300  0.25295700  0.19014833  1
  C  163  1  0.99326900  0.45639567  0.10226333  1
  C  164  1  0.11300700  0.46110533  0.11208467  1
  C  165  1  0.10922900  0.46700567  0.13256333  1
  C  166  1  0.98606500  0.46816300  0.14391033  1
  C  167  1  0.86649600  0.46369733  0.13367833  1
  C  168  1  0.86981300  0.45794667  0.11310933  1
  C  169  1  0.98280400  0.47265067  0.16570033  1
  C  170  1  0.06127700  0.49257467  0.16606067  1
  C  171  1  0.06014000  0.49637100  0.18794000  1
  C  172  1  0.98023900  0.48038933  0.21019800  1
  C  173  1  0.90253800  0.46036233  0.20994300  1
  C  174  1  0.90341000  0.45663233  0.18806333  1
  C  175  1  0.00498500  0.52528500  0.96478200  1
  C  176  1  0.88587400  0.54030667  0.95696967  1
  C  177  1  0.88772900  0.56672067  0.93654767  1
  C  178  1  0.00815700  0.57873000  0.92320533  1
  C  179  1  0.12729500  0.56357267  0.93136633  1
  C  180  1  0.12601200  0.53724600  0.95194767  1
  C  181  1  0.00822500  0.60496200  0.90138967  1
  C  182  1  0.07133200  0.61084333  0.87748633  1
  C  183  1  0.06682400  0.63638167  0.85550867  1
  C  184  1  0.99961900  0.65701500  0.85665667  1
  C  185  1  0.93858100  0.65127500  0.88068967  1
  C  186  1  0.94210700  0.62565300  0.90262967  1
  C  187  1  0.99327600  0.40663300  0.96468833  1
  C  188  1  0.86975300  0.40508833  0.95378233  1
  C  189  1  0.11305700  0.40220600  0.95472133  1
  C  190  1  0.10924900  0.39663367  0.93401500  1
  C  191  1  0.98601000  0.39554467  0.92257333  1
  C  192  1  0.86640100  0.39967167  0.93298500  1
  C  193  1  0.98271800  0.39156967  0.90045600  1
  C  194  1  0.90261000  0.40782500  0.87820767  1
  C  195  1  0.90189700  0.40466200  0.85598333  1
  C  196  1  0.98044000  0.38497600  0.85525433  1
  C  197  1  0.06101700  0.36875233  0.87740300  1
  C  198  1  0.06199900  0.37198333  0.89962900  1
  C  241  1  0.99991933  0.91962100  0.61381433  1
  C  242  1  0.00237000  0.94678900  0.60025133  1
  C  243  1  0.99920800  0.95544600  0.57331933  1
  C  245  1  0.99638200  0.91104500  0.59548067  1
  C  246  1  0.99336000  0.88426533  0.60182667  1
  C  247  1  0.99339200  0.87561400  0.58313167  1
  C  249  1  0.99666800  0.87562700  0.54493667  1
  C  250  1  0.99292000  0.84947900  0.56533467  1
  C  251  1  0.99104100  0.84947000  0.58884967  1
  C  252  1  0.99937000  0.88430500  0.51758667  1
  C  253  1  0.99934500  0.91111800  0.49719467  1
  C  255  1  0.99633200  0.95551700  0.47503233  1
  C  256  1  0.99999900  0.94694100  0.45670133  1
  C  257  1  0.00264600  0.91977500  0.47026500  1
  C  258  1  0.99314900  0.98229900  0.46867700  1
  C  259  1  0.99314900  0.99095200  0.48736933  1
  C  261  1  0.99641600  0.99093500  0.52556800  1
  C  262  1  0.99268000  0.01708600  0.50516200  1
  C  263  1  0.99083500  0.01709767  0.48164400  1
  C  264  1  0.99921300  0.98225700  0.55292200  1
  C  265  1  0.00274500  0.00201367  0.56028500  1
  C  266  1  0.12432900  0.01472367  0.55942800  1
  C  267  1  0.12641300  0.03552133  0.56485033  1
  C  268  1  0.00753500  0.04403967  0.57149133  1
  C  269  1  0.88656200  0.03079600  0.57285500  1
  C  270  1  0.88391600  0.01014400  0.56719767  1
  C  271  1  0.00837200  0.06616800  0.57541100  1
  C  272  1  0.94184800  0.06549433  0.59701967  1
  C  273  1  0.93900200  0.08776300  0.60016667  1
  C  274  1  0.00110200  0.11157067  0.58163300  1
  C  275  1  0.06865700  0.11215467  0.56017033  1
  C  276  1  0.07250600  0.08985033  0.55714967  1
  C  277  1  0.98945800  0.00204967  0.44157267  1
  C  278  1  0.10915900  0.01180200  0.42711033  1
  C  279  1  0.10529700  0.03226800  0.40072100  1
  C  280  1  0.98209700  0.04369933  0.38815300  1
  C  281  1  0.86257300  0.03353667  0.40278200  1
  C  282  1  0.86596500  0.01296800  0.42910533  1
  C  283  1  0.97876600  0.06549467  0.36187467  1
  C  284  1  0.05720400  0.06581267  0.34163400  1
  C  285  1  0.05607300  0.08770100  0.31596500  1
  C  286  1  0.97616600  0.11000900  0.30964667  1
  C  287  1  0.89837000  0.10978433  0.32987767  1
  C  288  1  0.89924600  0.08789400  0.35548200  1
  C  289  1  0.00278000  0.86456500  0.51020000  1
  C  290  1  0.88409100  0.85672800  0.50288800  1
  C  291  1  0.88676200  0.83630200  0.49690433  1
  C  292  1  0.00762500  0.82299000  0.49833500  1
  C  293  1  0.12632800  0.83117600  0.50543300  1
  C  294  1  0.12421400  0.85174767  0.51118833  1
  C  295  1  0.00857200  0.80118733  0.49389933  1
  C  296  1  0.07216500  0.77730133  0.51196267  1
  C  297  1  0.06846800  0.75532667  0.50839167  1
  C  298  1  0.00163700  0.75646333  0.48655800  1
  C  299  1  0.94019900  0.78048633  0.46821400  1
  C  300  1  0.94289400  0.80242200  0.47190767  1
  C  301  1  0.98963400  0.86450000  0.62892100  1
  C  302  1  0.86608500  0.85367400  0.64127500  1
  C  303  1  0.10938000  0.85444800  0.64340600  1
  C  304  1  0.10551600  0.83376400  0.66969067  1
  C  305  1  0.98225700  0.82238800  0.68211867  1
  C  306  1  0.86268000  0.83288200  0.66748800  1
  C  307  1  0.97893200  0.80026567  0.70820400  1
  C  308  1  0.89880000  0.77807567  0.71413467  1
  C  309  1  0.89813900  0.75583933  0.73951333  1
  C  310  1  0.97663200  0.75505367  0.75998800  1
  C  311  1  0.05714400  0.77715000  0.75413300  1
  C  312  1  0.05815100  0.79938100  0.72868067  1
  C  355  1  0.98280400  0.48325333  0.23296567  1
  C  356  1  0.86409200  0.48566667  0.24486133  1
  C  357  1  0.86969300  0.48576200  0.26908000  1
  C  358  1  0.99431800  0.48353400  0.28173800  1
  C  359  1  0.11213600  0.48182100  0.26930400  1
  C  360  1  0.10660900  0.48177367  0.24538967  1
  C  362  1  0.63018300  0.48921200  0.26861100  1
  C  363  1  0.62504700  0.48971300  0.24447267  1
  C  369  1  0.97878100  0.13279200  0.28402933  1
  C  370  1  0.86009300  0.14477133  0.26963067  1
  C  371  1  0.86573600  0.16898633  0.24532067  1
  C  372  1  0.99038100  0.18155967  0.23498467  1
  C  373  1  0.10817300  0.16904167  0.24921900  1
  C  374  1  0.10259100  0.14513900  0.27318367  1
  C  376  1  0.62623000  0.16868567  0.24216433  1
  C  377  1  0.62105900  0.14454533  0.26579267  1
  C  383  1  0.98305500  0.18384467  0.58341000  1
  C  384  1  0.86394100  0.16961767  0.58580867  1
  C  385  1  0.86876600  0.14529200  0.58592167  1
  C  386  1  0.99299900  0.13476767  0.58373333  1
  C  387  1  0.11122800  0.14883133  0.58204633  1
  C  388  1  0.10648300  0.17279667  0.58199733  1
  C  390  1  0.62925100  0.14248533  0.58931167  1
  C  391  1  0.62488700  0.16613767  0.58978967  1
  C  397  1  0.98318500  0.38272033  0.83213700  1
  C  398  1  0.86459300  0.38050933  0.82000900  1
  C  399  1  0.87023500  0.38102967  0.79549133  1
  C  400  1  0.99479300  0.38367400  0.78276067  1
  C  401  1  0.11251400  0.38519200  0.79540867  1
  C  402  1  0.10692900  0.38465200  0.81960867  1
  C  404  1  0.63086900  0.37735400  0.79582967  1
  C  405  1  0.62571400  0.37625267  0.82024867  1
  C  411  1  0.97931300  0.73193567  0.78536500  1
  C  412  1  0.86069000  0.71989733  0.79961600  1
  C  413  1  0.86628100  0.69537500  0.82361833  1
  C  414  1  0.99081100  0.68255200  0.83379167  1
  C  415  1  0.10857200  0.69511767  0.81972067  1
  C  416  1  0.10304600  0.71932333  0.79605700  1
  C  418  1  0.62691100  0.69589100  0.82678000  1
  C  419  1  0.62181100  0.72031700  0.80346000  1
  C  425  1  0.98353600  0.68514733  0.48295900  1
  C  426  1  0.86453200  0.69939633  0.48062233  1
  C  427  1  0.86940200  0.72340800  0.48112867  1
  C  428  1  0.99357500  0.73359333  0.48388633  1
  C  429  1  0.11172300  0.71952800  0.48550500  1
  C  430  1  0.10690900  0.69585600  0.48497367  1
  C  432  1  0.63001100  0.72654533  0.47724400  1
  C  433  1  0.62562800  0.70322200  0.47614100  1
  H  5  1  0.00854700  0.53365867  0.45814933  1
  H  6  1  0.01292600  0.36132300  0.63025633  1
  H  87  1  0.12077300  0.66820667  0.45468200  1
  H  88  1  0.12303700  0.62506133  0.46002733  1
  H  89  1  0.84686600  0.64250533  0.51753200  1
  H  90  1  0.84894100  0.59954433  0.52289300  1
  H  91  1  0.77797900  0.57563800  0.49887367  1
  H  92  1  0.78517200  0.53096233  0.50843700  1
  H  93  1  0.20093300  0.57905100  0.49476500  1
  H  94  1  0.20742600  0.53446267  0.50397433  1
  H  95  1  0.01247100  0.50876700  0.43315867  1
  H  96  1  0.99963400  0.45502167  0.51173133  1
  H  97  1  0.99955800  0.41508133  0.55167467  1
  H  98  1  0.99564000  0.50679367  0.56033300  1
  H  99  1  0.99804100  0.46351133  0.60359600  1
  H  100  1  0.80080000  0.40232133  0.63202967  1
  H  101  1  0.80311400  0.39240500  0.67687033  1
  H  102  1  0.21769200  0.41617167  0.62707067  1
  H  103  1  0.22062700  0.40613200  0.67194100  1
  H  104  1  0.00875200  0.33644033  0.60527000  1
  H  105  1  0.99792100  0.40657667  0.45982233  1
  H  106  1  0.99556000  0.36329500  0.50308567  1
  H  107  1  0.20730500  0.33543567  0.56004267  1
  H  108  1  0.20084100  0.29067467  0.56978900  1
  H  109  1  0.78520400  0.33926100  0.55459533  1
  H  110  1  0.77804000  0.29442000  0.56468533  1
  H  111  1  0.85003800  0.26966233  0.54159133  1
  H  112  1  0.84770400  0.22632133  0.54791067  1
  H  113  1  0.11930900  0.20150733  0.61124067  1
  H  114  1  0.12182000  0.24502300  0.60493533  1
  H  115  1  0.80050900  0.46747467  0.43125433  1
  H  116  1  0.80284900  0.47685667  0.38658900  1
  H  117  1  0.12279100  0.44065133  0.36788767  1
  H  118  1  0.11505100  0.44579700  0.32500800  1
  H  119  1  0.89284800  0.51598667  0.29769333  1
  H  120  1  0.89907200  0.51065633  0.34080833  1
  H  121  1  0.22086300  0.46349967  0.39186467  1
  H  122  1  0.21788700  0.45398033  0.43656500  1
  H  123  1  0.12160400  0.42816367  0.69663467  1
  H  124  1  0.11406300  0.42209667  0.73988200  1
  H  125  1  0.90071100  0.35810333  0.72240767  1
  H  126  1  0.89470700  0.35185300  0.76587700  1
  H  199  1  0.11942900  0.35433400  0.87756433  1
  H  200  1  0.12070200  0.35969300  0.91535533  1
  H  201  1  0.84586500  0.41739933  0.83999933  1
  H  202  1  0.84695600  0.42277467  0.87759267  1
  H  203  1  0.77517300  0.39885600  0.92543067  1
  H  204  1  0.78164000  0.40843400  0.96053867  1
  H  205  1  0.19812200  0.39437200  0.92669733  1
  H  206  1  0.20389300  0.40359767  0.96206867  1
  H  207  1  0.00463800  0.35794600  0.00842900  1
  H  208  1  0.00841700  0.33295033  0.05831333  1
  H  209  1  0.99534500  0.41152867  0.03348300  1
  H  210  1  0.99567000  0.45146767  0.03348700  1
  H  211  1  0.99175700  0.46014167  0.93310533  1
  H  212  1  0.99403700  0.50340000  0.93313200  1
  H  213  1  0.79661100  0.53196167  0.96573900  1
  H  214  1  0.79898100  0.57680267  0.93082500  1
  H  215  1  0.21352800  0.52671600  0.95715800  1
  H  216  1  0.21651300  0.57158667  0.92233500  1
  H  217  1  0.00851600  0.53004167  0.00867767  1
  H  218  1  0.00447500  0.50505433  0.05854367  1
  H  219  1  0.99399300  0.35961267  0.13383767  1
  H  220  1  0.99181800  0.40287433  0.13386100  1
  H  221  1  0.20379300  0.45976633  0.10474367  1
  H  222  1  0.19808600  0.46953400  0.13974733  1
  H  223  1  0.78171700  0.45446733  0.10640800  1
  H  224  1  0.77531300  0.46457567  0.14115133  1
  H  225  1  0.84820500  0.44148900  0.18899733  1
  H  226  1  0.84690600  0.44781133  0.22602067  1
  H  227  1  0.11789100  0.51103133  0.18743533  1
  H  228  1  0.11936900  0.50472100  0.15022733  1
  H  229  1  0.79635000  0.33116933  0.10139400  1
  H  230  1  0.79883200  0.28649433  0.13666867  1
  H  231  1  0.11886700  0.26761833  0.19176200  1
  H  232  1  0.11113300  0.22475600  0.22950267  1
  H  233  1  0.88890000  0.19755467  0.18651300  1
  H  234  1  0.89511500  0.24065567  0.14871633  1
  H  235  1  0.21684000  0.29152900  0.14499400  1
  H  236  1  0.21373300  0.33623500  0.10982367  1
  H  237  1  0.11755000  0.59633800  0.87553967  1
  H  238  1  0.11006900  0.63958500  0.83834767  1
  H  239  1  0.89659700  0.62228267  0.91965267  1
  H  240  1  0.89065500  0.66575133  0.88242333  1
  H  313  1  0.11550500  0.77727067  0.76843667  1
  H  314  1  0.11682900  0.81506700  0.72529367  1
  H  315  1  0.84204700  0.73990067  0.74272033  1
  H  316  1  0.84320000  0.77750367  0.69975433  1
  H  317  1  0.77144000  0.82538300  0.67578367  1
  H  318  1  0.77799400  0.86049400  0.63110767  1
  H  319  1  0.19437000  0.82635867  0.67932500  1
  H  320  1  0.20023200  0.86173400  0.63473867  1
  H  321  1  0.00113700  0.90823767  0.63386567  1
  H  322  1  0.00534100  0.95811800  0.60897100  1
  H  323  1  0.99214300  0.93328400  0.55522400  1
  H  324  1  0.99178200  0.93328000  0.51528367  1
  H  325  1  0.98847600  0.83290900  0.60700233  1
  H  326  1  0.99113100  0.83292800  0.56372200  1
  H  327  1  0.79455200  0.86548600  0.50237867  1
  H  328  1  0.79831400  0.83057400  0.49245033  1
  H  329  1  0.21145300  0.85698700  0.51656767  1
  H  330  1  0.21583700  0.82217000  0.50651833  1
  H  331  1  0.00584300  0.90845200  0.46154300  1
  H  332  1  0.00134800  0.95831900  0.43665200  1
  H  333  1  0.99108100  0.03363967  0.50677033  1
  H  334  1  0.98838500  0.03365733  0.46348733  1
  H  335  1  0.19997600  0.00441867  0.43584500  1
  H  336  1  0.19413400  0.03942867  0.39107333  1
  H  337  1  0.77789900  0.00631500  0.43923300  1
  H  338  1  0.77136100  0.04106433  0.39437967  1
  H  339  1  0.84420700  0.08887233  0.36966867  1
  H  340  1  0.84287300  0.12590867  0.32633100  1
  H  341  1  0.11386300  0.08717200  0.30184467  1
  H  342  1  0.11537100  0.04995000  0.34535567  1
  H  343  1  0.79427100  0.00148200  0.56758000  1
  H  344  1  0.79800800  0.03675467  0.57698133  1
  H  345  1  0.11886900  0.09140500  0.54088733  1
  H  346  1  0.11254000  0.12914100  0.54603467  1
  H  347  1  0.89075900  0.08643900  0.61615800  1
  H  348  1  0.89554500  0.04865200  0.61082533  1
  H  349  1  0.21597300  0.04449300  0.56379100  1
  H  350  1  0.21160500  0.00932667  0.55425667  1
  H  351  1  0.11787500  0.77534433  0.52848100  1
  H  352  1  0.11178800  0.73816133  0.52240700  1
  H  353  1  0.89707300  0.81943433  0.45822367  1
  H  354  1  0.89253800  0.78221167  0.45196667  1
  H  365  1  0.54482200  0.49035867  0.27755433  1
  H  366  1  0.53580300  0.49118933  0.23528600  1
  H  367  1  0.19423000  0.47950200  0.23768633  1
  H  368  1  0.20393400  0.48015067  0.27783500  1
  H  379  1  0.54088400  0.17769267  0.23201600  1
  H  380  1  0.53179600  0.13542667  0.27344133  1
  H  381  1  0.19022700  0.13734500  0.28319800  1
  H  382  1  0.19999600  0.17749267  0.24241033  1
  H  393  1  0.54359400  0.13245533  0.59044100  1
  H  394  1  0.53593400  0.17391200  0.59124433  1
  H  395  1  0.19436900  0.18270867  0.57974467  1
  H  396  1  0.20276500  0.14189200  0.58041967  1
  H  407  1  0.54557300  0.37635400  0.78672967  1
  H  408  1  0.53651600  0.37446100  0.82949767  1
  H  409  1  0.19447500  0.38675967  0.82749767  1
  H  410  1  0.20425900  0.38713533  0.78684033  1
  H  421  1  0.54159400  0.68685400  0.83681600  1
  H  422  1  0.53262800  0.72962633  0.79593467  1
  H  423  1  0.19059300  0.72714533  0.78611633  1
  H  424  1  0.20029600  0.68647867  0.82640900  1
  H  435  1  0.54441100  0.73657267  0.47617267  1
  H  436  1  0.53670500  0.69567900  0.47429567  1
  H  437  1  0.19472500  0.68593400  0.48714867  1
  H  438  1  0.20321700  0.72623933  0.48750867  1
  N  21  1  0.00367700  0.47137500  0.49539900  1
  N  24  1  0.00438400  0.45639633  0.55314967  1
  N  29  1  0.00377600  0.39872700  0.56800900  1
  N  34  1  0.00412800  0.41369700  0.51026833  1
  N  130  1  0.99945000  0.39519567  0.03346233  1
  N  134  1  0.00021000  0.45294567  0.99069600  1
  N  140  1  0.99954000  0.46780100  0.03351133  1
  N  146  1  0.99998600  0.41005933  0.07627700  1
  N  244  1  0.99602100  0.93326400  0.57158033  1
  N  248  1  0.99681900  0.89049200  0.55660900  1
  N  254  1  0.99602100  0.93330000  0.49893233  1
  N  260  1  0.99652800  0.97607100  0.51389600  1
  N  361  1  0.75151200  0.48722300  0.27989033  1
  N  364  1  0.74147700  0.48782267  0.23367400  1
  N  375  1  0.74757200  0.17988100  0.23296467  1
  N  378  1  0.73746300  0.13366800  0.27856967  1
  N  389  1  0.75022700  0.13310300  0.58736000  1
  N  392  1  0.74167600  0.17874300  0.58792433  1
  N  403  1  0.75213600  0.37972967  0.78448767  1
  N  406  1  0.74204700  0.37796800  0.83125400  1
  N  417  1  0.74815400  0.68445833  0.83583467  1
  N  420  1  0.73816900  0.73123333  0.79082267  1
  N  431  1  0.75093500  0.73561333  0.47972400  1
  N  434  1  0.74232300  0.69058933  0.47797733  1
