# generated using pymatgen
data_H15C29N3
_symmetry_space_group_name_H-M   'P 1'
_cell_length_a   22.92585000
_cell_length_b   26.22704897
_cell_length_c   26.27860040
_cell_angle_alpha   119.68110919
_cell_angle_beta   90.12925940
_cell_angle_gamma   90.12847489
_symmetry_Int_Tables_number   1
_chemical_formula_structural   H15C29N3
_chemical_formula_sum   'H60 C116 N12'
_cell_volume   13727.45336833
_cell_formula_units_Z   4
loop_
 _symmetry_equiv_pos_site_id
 _symmetry_equiv_pos_as_xyz
  1  'x, y, z'
loop_
 _atom_site_type_symbol
 _atom_site_label
 _atom_site_symmetry_multiplicity
 _atom_site_fract_x
 _atom_site_fract_y
 _atom_site_fract_z
 _atom_site_occupancy
  C  1  1  0.00389900  0.52870050  0.01748050  1
  C  2  1  0.05775200  0.56024925  0.02943525  1
  C  3  1  0.05731150  0.62214300  0.05323500  1
  C  4  1  0.00347850  0.65150575  0.06509375  1
  C  5  1  0.94983200  0.62151125  0.05368125  1
  C  6  1  0.94983400  0.55960925  0.02985775  1
  C  7  1  0.11054100  0.52862950  0.01658550  1
  C  8  1  0.89726200  0.52735175  0.01742725  1
  C  10  1  0.00411600  0.46623850  0.99278300  1
  C  11  1  0.05818150  0.43533025  0.98039475  1
  C  12  1  0.05818250  0.37342500  0.95654450  1
  C  13  1  0.00453950  0.34343650  0.94517100  1
  C  14  1  0.95070400  0.37280100  0.95706650  1
  C  15  1  0.95026300  0.43468950  0.98083750  1
  C  16  1  0.11075250  0.46758625  0.99282825  1
  C  18  1  0.89747500  0.46631175  0.99369075  1
  C  45  1  0.50399200  0.00979275  0.53622075  1
  C  46  1  0.45001400  0.02215775  0.56721075  1
  C  47  1  0.45018200  0.04578600  0.62896150  1
  C  48  1  0.50391400  0.05702225  0.65871775  1
  C  49  1  0.55766800  0.04516925  0.62927675  1
  C  50  1  0.55793400  0.02157100  0.56753850  1
  C  51  1  0.39735350  0.00989800  0.53518100  1
  C  52  1  0.61063450  0.00873925  0.53584225  1
  C  54  1  0.50403600  0.98528475  0.47390875  1
  C  55  1  0.45009400  0.97351125  0.44259125  1
  C  56  1  0.45035900  0.94992225  0.38085275  1
  C  57  1  0.50411600  0.93804150  0.35141000  1
  C  58  1  0.55784900  0.94925375  0.38116375  1
  C  59  1  0.55801550  0.97290625  0.44291725  1
  C  60  1  0.39739600  0.98634300  0.47428800  1
  C  62  1  0.61067500  0.98517125  0.47494825  1
  C  89  1  0.28553350  0.11795225  0.81200675  1
  C  91  1  0.22350700  0.19059975  0.88454425  1
  C  93  1  0.25472550  0.10867350  0.89399350  1
  C  95  1  0.18891100  0.24241225  0.90591275  1
  C  96  1  0.17630850  0.26808075  0.87067175  1
  C  97  1  0.13639150  0.31468650  0.88916000  1
  C  98  1  0.10886500  0.33802500  0.94418550  1
  C  99  1  0.12291650  0.31437100  0.98061250  1
  C  100  1  0.16246250  0.26764650  0.96189700  1
  C  101  1  0.31993800  0.09649825  0.76016325  1
  C  102  1  0.33225300  0.13173675  0.73439925  1
  C  103  1  0.37200000  0.11319425  0.68773575  1
  C  104  1  0.39961100  0.05810000  0.66444350  1
  C  105  1  0.38578750  0.02160933  0.68817967  1
  C  106  1  0.34646100  0.04044150  0.73496450  1
  C  107  1  0.25479950  0.07726775  0.92550225  1
  C  108  1  0.27779050  0.01975500  0.90055850  1
  C  109  1  0.27735100  0.98856875  0.93138525  1
  C  110  1  0.25480850  0.01407350  0.98884400  1
  C  111  1  0.23227900  0.07164025  0.01418075  1
  C  112  1  0.23182300  0.10238850  0.98292200  1
  C  125  1  0.28527850  0.87881000  0.19717550  1
  C  127  1  0.22254300  0.80617100  0.12458300  1
  C  129  1  0.25419400  0.88809625  0.11517325  1
  C  131  1  0.18772450  0.75427925  0.10330575  1
  C  132  1  0.17645800  0.72793575  0.13818575  1
  C  133  1  0.13654100  0.68109300  0.11986200  1
  C  134  1  0.10773100  0.65812325  0.06531675  1
  C  135  1  0.12045350  0.68246025  0.02920625  1
  C  136  1  0.15995400  0.72947500  0.04778900  1
  C  137  1  0.31995800  0.90008375  0.24904875  1
  C  138  1  0.33118350  0.86504550  0.27524950  1
  C  139  1  0.37098100  0.88335325  0.32208825  1
  C  140  1  0.39985350  0.93797925  0.34507325  1
  C  141  1  0.38724250  0.97421750  0.32082150  1
  C  142  1  0.34774400  0.95570900  0.27390950  1
  C  143  1  0.25439450  0.91949450  0.08366100  1
  C  144  1  0.27768450  0.97706575  0.10871375  1
  C  145  1  0.27740450  0.00823800  0.07787200  1
  C  146  1  0.25473300  0.98266125  0.02029425  1
  C  147  1  0.23192700  0.92502725  0.99484225  1
  C  148  1  0.23129650  0.89429650  0.02611850  1
  C  161  1  0.72243050  0.87692450  0.19805600  1
  C  163  1  0.78445700  0.80426175  0.12553075  1
  C  165  1  0.75319200  0.88614025  0.11601925  1
  C  167  1  0.81907650  0.75246575  0.10419975  1
  C  168  1  0.83161900  0.72679200  0.13945000  1
  C  169  1  0.87155150  0.68020350  0.12101400  1
  C  170  1  0.89914300  0.65691200  0.06603150  1
  C  171  1  0.88516600  0.68055150  0.02957700  1
  C  172  1  0.84560300  0.72725700  0.04825150  1
  C  173  1  0.68805300  0.89841475  0.24991525  1
  C  174  1  0.67568800  0.86318275  0.27567475  1
  C  175  1  0.63595900  0.88176575  0.32235775  1
  C  176  1  0.60841750  0.93689825  0.34567475  1
  C  177  1  0.62229500  0.97335125  0.32197525  1
  C  178  1  0.66160150  0.95450700  0.27513950  1
  C  179  1  0.75309300  0.91752650  0.08449050  1
  C  180  1  0.73008800  0.97503500  0.10942850  1
  C  181  1  0.73052500  0.00621850  0.07860000  1
  C  182  1  0.75307400  0.98071525  0.02114425  1
  C  183  1  0.77560100  0.92314700  0.99580700  1
  C  184  1  0.77605900  0.89239950  0.02706800  1
  C  197  1  0.72271300  0.11618325  0.81297775  1
  C  199  1  0.78544600  0.18878275  0.88560975  1
  C  201  1  0.75377600  0.10680925  0.89493175  1
  C  203  1  0.82027400  0.24067300  0.90692850  1
  C  204  1  0.83146200  0.26712650  0.87213300  1
  C  205  1  0.87138350  0.31396900  0.89047950  1
  C  206  1  0.90028150  0.33681350  0.94496700  1
  C  207  1  0.88764300  0.31237675  0.98100725  1
  C  208  1  0.84813400  0.26536700  0.96239600  1
  C  209  1  0.68804700  0.09494925  0.76110175  1
  C  210  1  0.67674700  0.13006875  0.73500625  1
  C  211  1  0.63695950  0.11178100  0.68816050  1
  C  212  1  0.60817200  0.05709800  0.66505250  1
  C  213  1  0.62086200  0.02079375  0.68921125  1
  C  214  1  0.66034600  0.03927575  0.73613125  1
  C  215  1  0.75356150  0.07537375  0.92640775  1
  C  216  1  0.73024700  0.01780950  0.90132800  1
  C  217  1  0.73050200  0.98660825  0.93214075  1
  C  218  1  0.75317750  0.01214675  0.98971325  1
  C  219  1  0.77601700  0.06976750  0.01518900  1
  C  220  1  0.77666800  0.10052950  0.98394400  1
  H  9  1  0.00333150  0.69628050  0.08237350  1
  H  17  1  0.00468550  0.29865825  0.92788575  1
  H  19  1  0.15026150  0.44700100  0.98460000  1
  H  20  1  0.14990850  0.54968475  0.02446175  1
  H  21  1  0.85810900  0.44525900  0.98582400  1
  H  22  1  0.85775400  0.54793675  0.02564975  1
  H  53  1  0.50389400  0.07417750  0.70338600  1
  H  61  1  0.50413500  0.92087125  0.30674125  1
  H  63  1  0.35797100  0.97859150  0.45339550  1
  H  64  1  0.35790500  0.01810775  0.55582775  1
  H  65  1  0.65012500  0.97695450  0.45429900  1
  H  66  1  0.65005800  0.01649850  0.55673650  1
  H  113  1  0.38340750  0.14173725  0.67343425  1
  H  114  1  0.31546600  0.17313075  0.75187925  1
  H  115  1  0.40700750  0.98258800  0.67388850  1
  H  116  1  0.33961700  0.01341700  0.75212400  1
  H  117  1  0.29475600  0.99944075  0.85917625  1
  H  118  1  0.29468800  0.94724600  0.91176850  1
  H  119  1  0.21485200  0.14384925  0.00311675  1
  H  120  1  0.21491300  0.09137525  0.05541375  1
  H  121  1  0.16944400  0.25050550  0.98889300  1
  H  122  1  0.10175850  0.32863225  0.01961475  1
  H  123  1  0.12490250  0.32903600  0.86070800  1
  H  124  1  0.19316650  0.25065325  0.82939375  1
  H  149  1  0.38138450  0.85499700  0.33689500  1
  H  150  1  0.31326600  0.82402750  0.25819050  1
  H  151  1  0.40937250  0.01290100  0.33485250  1
  H  152  1  0.34182900  0.98250900  0.25635150  1
  H  153  1  0.29472750  0.99744525  0.15019325  1
  H  154  1  0.29492600  0.04961750  0.09758550  1
  H  155  1  0.21410800  0.85279500  0.00585000  1
  H  156  1  0.21443550  0.90525000  0.95353000  1
  H  157  1  0.16596350  0.74708125  0.02106725  1
  H  158  1  0.09834500  0.66845925  0.99059575  1
  H  159  1  0.12607700  0.66621275  0.14811275  1
  H  160  1  0.19424950  0.74503550  0.17917500  1
  H  185  1  0.62450750  0.85322975  0.33665275  1
  H  186  1  0.69241800  0.82176350  0.25817500  1
  H  187  1  0.60112200  0.01243075  0.33625325  1
  H  188  1  0.66848500  0.98152925  0.25798425  1
  H  189  1  0.71312750  0.99535425  0.15081325  1
  H  190  1  0.71318900  0.04754175  0.09821675  1
  H  191  1  0.79304400  0.85094700  0.00688250  1
  H  192  1  0.79297300  0.90341650  0.95457750  1
  H  193  1  0.83866300  0.74440250  0.02125450  1
  H  194  1  0.90637500  0.66630200  0.99060000  1
  H  195  1  0.88299650  0.66584175  0.14946625  1
  H  196  1  0.81469950  0.74419950  0.18070150  1
  H  221  1  0.62650050  0.14018850  0.67343400  1
  H  222  1  0.69459450  0.17112325  0.75214775  1
  H  223  1  0.59879050  0.98206550  0.67510200  1
  H  224  1  0.66631500  0.01241600  0.75361050  1
  H  225  1  0.71318800  0.99746425  0.85985375  1
  H  226  1  0.71295700  0.94523675  0.91241125  1
  H  227  1  0.79387700  0.14202300  0.00423200  1
  H  228  1  0.79351250  0.08951775  0.05649825  1
  H  229  1  0.84218300  0.24767875  0.98905525  1
  H  230  1  0.90981300  0.32629725  0.01957125  1
  H  231  1  0.88179050  0.32893300  0.86228500  1
  H  232  1  0.81360200  0.25011300  0.83118150  1
  N  90  1  0.25445400  0.16866900  0.83384600  1
  N  92  1  0.22461050  0.15947450  0.91334400  1
  N  94  1  0.28469900  0.08921400  0.84319900  1
  N  126  1  0.25383150  0.82811000  0.17527800  1
  N  128  1  0.22370150  0.83728525  0.09576925  1
  N  130  1  0.28449650  0.90756200  0.16599800  1
  N  162  1  0.75352150  0.82621650  0.17623750  1
  N  164  1  0.78332600  0.83535350  0.09669400  1
  N  166  1  0.72323600  0.90562600  0.16682800  1
  N  198  1  0.75416100  0.16688525  0.83491625  1
  N  200  1  0.78427600  0.15762475  0.91437825  1
  N  202  1  0.72348250  0.08738550  0.84410900  1
