# generated using pymatgen
data_H36C49N8
_symmetry_space_group_name_H-M   'P 1'
_cell_length_a   16.07720000
_cell_length_b   16.07720000
_cell_length_c   47.86380000
_cell_angle_alpha   89.95840000
_cell_angle_beta   89.97920000
_cell_angle_gamma   60.00000000
_symmetry_Int_Tables_number   1
_chemical_formula_structural   H36C49N8
_chemical_formula_sum   'H108 C147 N24'
_cell_volume   10714.16970894
_cell_formula_units_Z   3
loop_
 _symmetry_equiv_pos_site_id
 _symmetry_equiv_pos_as_xyz
  1  'x, y, z'
loop_
 _atom_site_type_symbol
 _atom_site_label
 _atom_site_symmetry_multiplicity
 _atom_site_fract_x
 _atom_site_fract_y
 _atom_site_fract_z
 _atom_site_occupancy
  C  3  1  0.36028000  0.62979850  0.68014600  1
  C  9  1  0.10261700  0.88492450  0.65838900  1
  C  15  1  0.97473300  0.01705650  0.43448100  1
  C  19  1  0.97953600  0.00685000  0.84526800  1
  C  20  1  0.02104500  0.97725200  0.79517700  1
  C  23  1  0.82599000  0.16105000  0.72147000  1
  C  25  1  0.01393900  0.97932950  0.51193800  1
  C  30  1  0.88285500  0.10141700  0.98921300  1
  C  37  1  0.00924900  0.97338300  0.10129800  1
  C  39  1  0.61988000  0.36130050  0.99951600  1
  C  41  1  0.97812100  0.00112450  0.12862500  1
  C  44  1  0.96318400  0.03880950  0.81705800  1
  C  46  1  0.83526900  0.19328500  0.83228700  1
  C  47  1  0.85142900  0.16080500  0.86039100  1
  C  48  1  0.01768100  0.00835850  0.76783700  1
  C  55  1  0.19204300  0.81243800  0.93321700  1
  C  59  1  0.88269200  0.03832150  0.21265700  1
  C  63  1  0.13054100  0.88077000  0.05019600  1
  C  67  1  0.05380700  0.91304350  0.85201900  1
  C  68  1  0.09330900  0.88293300  0.80226100  1
  C  69  1  0.10905900  0.85113150  0.83013500  1
  C  72  1  0.76063000  0.29037300  0.82337600  1
  C  74  1  0.79737500  0.21767100  0.88503400  1
  C  76  1  0.07919600  0.88184350  0.87922900  1
  C  79  1  0.03377500  0.05342250  0.51863000  1
  C  80  1  0.03964000  0.07884600  0.54582200  1
  C  99  1  0.11589700  0.96328300  0.06484800  1
  C  100  1  0.16192800  0.01245450  0.05491000  1
  C  101  1  0.22524700  0.97694200  0.03200900  1
  C  102  1  0.24925700  0.88817100  0.01902900  1
  C  103  1  0.19388100  0.84578400  0.02735200  1
  C  104  1  0.32746300  0.83986400  0.99672600  1
  C  105  1  0.26658700  0.86082800  0.97027000  1
  C  106  1  0.24534900  0.79294400  0.95805600  1
  C  107  1  0.15477100  0.90246350  0.91987700  1
  C  108  1  0.16906700  0.97312000  0.93274100  1
  C  109  1  0.22038400  0.95382300  0.95799400  1
  C  110  1  0.39985300  0.87532150  0.99622900  1
  C  111  1  0.39610400  0.73265350  0.00170500  1
  C  112  1  0.45647100  0.67334250  0.97979700  1
  C  113  1  0.51621700  0.57368650  0.98318800  1
  C  114  1  0.52141900  0.53033100  0.00924900  1
  C  115  1  0.46915500  0.58888350  0.03190700  1
  C  116  1  0.40975700  0.68838100  0.02832800  1
  C  117  1  0.44564600  0.87824900  0.02137100  1
  C  118  1  0.50886600  0.91469700  0.02213300  1
  C  119  1  0.53210000  0.94602850  0.99734500  1
  C  120  1  0.49432200  0.93605400  0.97187000  1
  C  121  1  0.43205100  0.89833950  0.97128300  1
  C  139  1  0.96415800  0.92062500  0.39812900  1
  C  140  1  0.01290400  0.82529800  0.38831400  1
  C  141  1  0.97723000  0.79752750  0.36545600  1
  C  142  1  0.88844400  0.86237500  0.35247900  1
  C  143  1  0.84631500  0.96016050  0.36071700  1
  C  144  1  0.88158700  0.98851850  0.38347700  1
  C  145  1  0.83992700  0.83255000  0.33023100  1
  C  146  1  0.86102900  0.87220250  0.30373000  1
  C  147  1  0.79329400  0.96134750  0.29145800  1
  C  148  1  0.81293100  0.99500650  0.26660000  1
  C  149  1  0.90293200  0.94201350  0.25328300  1
  C  150  1  0.97350900  0.85711350  0.26622000  1
  C  151  1  0.95403100  0.82520300  0.29147500  1
  C  152  1  0.87512800  0.72474950  0.32982300  1
  C  153  1  0.73267100  0.87145650  0.33522400  1
  C  154  1  0.67322100  0.87042900  0.31335800  1
  C  155  1  0.57352400  0.91063600  0.31675500  1
  C  156  1  0.53022400  0.94928450  0.34277700  1
  C  157  1  0.58893900  0.94277800  0.36541600  1
  C  158  1  0.68848500  0.90224350  0.36184100  1
  C  159  1  0.87800900  0.67616700  0.35500700  1
  C  160  1  0.91421500  0.57653650  0.35584300  1
  C  161  1  0.94530000  0.52189300  0.33108900  1
  C  162  1  0.93550400  0.56949000  0.30557500  1
  C  163  1  0.89802700  0.66943900  0.30491900  1
  C  182  1  0.92121100  0.11500250  0.73137900  1
  C  183  1  0.79816900  0.22437750  0.69855900  1
  C  184  1  0.86285300  0.24860500  0.68560200  1
  C  185  1  0.96061300  0.19330750  0.69392100  1
  C  186  1  0.98905100  0.12974700  0.71672300  1
  C  187  1  0.83287800  0.32691450  0.66330900  1
  C  188  1  0.87283900  0.26618150  0.63684000  1
  C  189  1  0.96201900  0.24495500  0.62464100  1
  C  190  1  0.99596400  0.19165500  0.59981200  1
  C  191  1  0.94329400  0.15436000  0.58647000  1
  C  192  1  0.85830700  0.16860150  0.59932100  1
  C  193  1  0.82616600  0.21991150  0.62456400  1
  C  194  1  0.72501100  0.39919800  0.66283100  1
  C  195  1  0.87134900  0.39561450  0.66828400  1
  C  196  1  0.87025300  0.45608100  0.64638200  1
  C  197  1  0.90987700  0.51606350  0.64978100  1
  C  198  1  0.94807800  0.52117850  0.67582800  1
  C  199  1  0.94195400  0.46867400  0.69847100  1
  C  200  1  0.90188100  0.40926400  0.69490300  1
  C  201  1  0.67625400  0.44486250  0.68798300  1
  C  202  1  0.57659900  0.50814300  0.68876300  1
  C  203  1  0.52208200  0.53154850  0.66398200  1
  C  204  1  0.56979200  0.49374100  0.63849700  1
  C  205  1  0.66978400  0.43149050  0.63789500  1
  C  226  1  0.91389200  0.03252400  0.18545300  1
  C  227  1  0.00764700  0.01315550  0.17871100  1
  C  228  1  0.03961500  0.99757000  0.15050800  1
  C  229  1  0.88384000  0.02304600  0.13569900  1
  C  230  1  0.85203900  0.03903850  0.16356800  1
  C  232  1  0.19397500  0.97132800  0.16574700  1
  C  233  1  0.16148600  0.98761750  0.19384400  1
  C  237  1  0.29100700  0.94906650  0.15684500  1
  C  241  1  0.21829100  0.98494350  0.21848800  1
  C  248  1  0.99834100  0.96290950  0.48374500  1
  C  249  1  0.00236700  0.02050550  0.46181600  1
  C  250  1  0.02469700  0.09259600  0.46883800  1
  C  251  1  0.04076400  0.10839850  0.49669700  1
  C  253  1  0.97117000  0.83543500  0.49908700  1
  C  254  1  0.98748800  0.85165700  0.52717300  1
  C  258  1  0.94840800  0.76098400  0.49024300  1
  C  262  1  0.98437000  0.79786700  0.55186200  1
  C  268  1  0.63435900  0.09305850  0.01190600  1
  C  269  1  0.71828400  0.09548550  0.00445200  1
  C  270  1  0.71518200  0.18499400  0.00138700  1
  C  271  1  0.62848300  0.27283000  0.00573100  1
  C  272  1  0.54601100  0.26860850  0.01392700  1
  C  273  1  0.54917700  0.18058900  0.01732600  1
  C  274  1  0.88550600  0.01216700  0.99181100  1
  C  278  1  0.96588200  0.11177750  0.98117100  1
  C  282  1  0.97048700  0.91651600  0.98684800  1
  C  286  1  0.63048100  0.00939250  0.01354400  1
  C  289  1  0.09248300  0.27278700  0.34570800  1
  C  290  1  0.09516900  0.18652050  0.33802400  1
  C  291  1  0.18479900  0.10033050  0.33487300  1
  C  292  1  0.27251900  0.09933200  0.33934800  1
  C  293  1  0.26801700  0.18592550  0.34778200  1
  C  294  1  0.17986900  0.27056300  0.35126500  1
  C  296  1  0.10155400  0.01621050  0.32235800  1
  C  297  1  0.01218900  0.10259950  0.32506200  1
  C  301  1  0.11213000  0.92294250  0.31408500  1
  C  305  1  0.91662900  0.11313900  0.32001600  1
  C  309  1  0.00868100  0.36017000  0.34739800  1
  C  311  1  0.36111100  0.01973550  0.33306800  1
  C  313  1  0.27273500  0.63370350  0.67848100  1
  C  314  1  0.18642700  0.71766950  0.67102700  1
  C  315  1  0.10000300  0.71461850  0.66795100  1
  C  316  1  0.09881100  0.62792900  0.67228700  1
  C  317  1  0.18544900  0.54542400  0.68050000  1
  C  318  1  0.27033700  0.54851950  0.68388400  1
  C  320  1  0.01600700  0.88231700  0.65578100  1
  C  323  1  0.92266600  0.96538100  0.64772900  1
  C  327  1  0.11334700  0.96989150  0.65343100  1
  C  332  1  0.01893000  0.61939500  0.66607500  1
  H  1  1  0.76442300  0.22781250  0.63319400  1
  H  7  1  0.26994900  0.72687300  0.96688200  1
  H  8  1  0.20534500  0.78339100  0.01825800  1
  H  24  1  0.68978300  0.30265250  0.82925400  1
  H  29  1  0.72809400  0.25622850  0.69237700  1
  H  56  1  0.09762500  0.08117750  0.55177400  1
  H  60  1  0.07381700  0.90209150  0.32874900  1
  H  70  1  0.16442000  0.78336800  0.83437100  1
  H  71  1  0.13768500  0.83686250  0.78718600  1
  H  73  1  0.76155600  0.29903400  0.80076000  1
  H  75  1  0.74122900  0.29014250  0.87965700  1
  H  77  1  0.08083300  0.82190800  0.88526100  1
  H  78  1  0.07946900  0.98454550  0.75767700  1
  H  122  1  0.55116200  0.53276300  0.96613600  1
  H  123  1  0.45271900  0.70170700  0.96039600  1
  H  124  1  0.47082100  0.55906150  0.05096700  1
  H  125  1  0.37424700  0.72756500  0.04553100  1
  H  126  1  0.42822100  0.85944150  0.03995500  1
  H  127  1  0.53186400  0.92471450  0.04109500  1
  H  128  1  0.50885600  0.95974050  0.95364800  1
  H  129  1  0.40808300  0.89111750  0.95220600  1
  H  130  1  0.22835700  0.00758850  0.96662600  1
  H  131  1  0.14244300  0.03940700  0.92372300  1
  H  132  1  0.18339200  0.75912950  0.92458700  1
  H  133  1  0.25702100  0.01521350  0.02578700  1
  H  134  1  0.15269900  0.07262700  0.06500500  1
  H  138  1  0.09993800  0.84190650  0.05695900  1
  H  164  1  0.53250700  0.91688100  0.29969800  1
  H  165  1  0.70145500  0.84582200  0.29395300  1
  H  166  1  0.55920300  0.97096500  0.38446800  1
  H  167  1  0.72777000  0.89846850  0.37903200  1
  H  168  1  0.85931900  0.71247250  0.37356600  1
  H  169  1  0.92415300  0.54361200  0.37482800  1
  H  170  1  0.95893800  0.53122800  0.28736700  1
  H  171  1  0.89082700  0.70053700  0.28581500  1
  H  172  1  0.00773300  0.76352800  0.30017700  1
  H  173  1  0.03982300  0.81736900  0.25724000  1
  H  174  1  0.75968200  0.05694150  0.25791900  1
  H  175  1  0.72721800  0.00293900  0.30025200  1
  H  176  1  0.78391300  0.01114150  0.35162000  1
  H  177  1  0.01526000  0.72739750  0.35932800  1
  H  178  1  0.07307300  0.77432000  0.39842400  1
  H  181  1  0.84287900  0.05800450  0.39021100  1
  H  206  1  0.91610200  0.55083250  0.63271000  1
  H  207  1  0.84571000  0.45235350  0.62697700  1
  H  208  1  0.97007600  0.47030900  0.71753000  1
  H  209  1  0.89824900  0.37367150  0.71210800  1
  H  210  1  0.71250300  0.42751200  0.70655900  1
  H  211  1  0.54361300  0.53121250  0.70772900  1
  H  212  1  0.53160200  0.50842650  0.62027400  1
  H  213  1  0.70098300  0.40762400  0.61881200  1
  H  214  1  0.81873500  0.14190150  0.59031000  1
  H  215  1  0.05798700  0.18297450  0.59120400  1
  H  216  1  0.00343800  0.26956050  0.63347400  1
  H  217  1  0.01146100  0.20491400  0.68481200  1
  H  218  1  0.77506700  0.15177050  0.73158200  1
  H  222  1  0.05846800  0.09930550  0.72350700  1
  H  223  1  0.77286800  0.34437300  0.83332100  1
  H  224  1  0.84668800  0.22312700  0.89958100  1
  H  225  1  0.76381100  0.18164850  0.89553400  1
  H  235  1  0.78432400  0.05130950  0.16780100  1
  H  236  1  0.83783800  0.02457750  0.12062700  1
  H  238  1  0.29968900  0.93946900  0.13423300  1
  H  239  1  0.34509000  0.88288200  0.16681700  1
  H  240  1  0.30313800  0.00773200  0.16269700  1
  H  242  1  0.29072000  0.96875450  0.21311700  1
  H  243  1  0.22386000  0.93013600  0.23305900  1
  H  244  1  0.18215300  0.05453550  0.22895800  1
  H  246  1  0.82287200  0.09671600  0.21868500  1
  H  247  1  0.98554900  0.93528550  0.09116700  1
  H  256  1  0.05341900  0.16360900  0.50088400  1
  H  257  1  0.02670900  0.13673600  0.45372500  1
  H  259  1  0.93888400  0.76181850  0.46762900  1
  H  260  1  0.88205200  0.77352350  0.50019800  1
  H  261  1  0.00678500  0.69008150  0.49616200  1
  H  263  1  0.96780800  0.74186350  0.54653600  1
  H  264  1  0.92963400  0.84738800  0.56638400  1
  H  265  1  0.05392100  0.76415800  0.56236800  1
  H  267  1  0.93705400  0.07879600  0.42426400  1
  H  276  1  0.48704500  0.18148900  0.02277100  1
  H  277  1  0.48115600  0.32993200  0.01671400  1
  H  279  1  0.94744500  0.18702050  0.98099300  1
  H  280  1  0.98932800  0.08280700  0.96025100  1
  H  281  1  0.02469700  0.07323350  0.99591800  1
  H  283  1  0.03414200  0.92018850  0.98116200  1
  H  284  1  0.95508900  0.88073800  0.96993500  1
  H  285  1  0.98666100  0.87304500  0.00573100  1
  H  287  1  0.66172500  0.96465150  0.02944800  1
  H  288  1  0.65430300  0.36716950  0.98305500  1
  H  299  1  0.18055900  0.33176350  0.35686000  1
  H  300  1  0.32923000  0.18957600  0.35067800  1
  H  302  1  0.18743200  0.86629450  0.31382800  1
  H  303  1  0.08303500  0.92898150  0.29315500  1
  H  306  1  0.92046200  0.04584900  0.31421200  1
  H  307  1  0.88076500  0.16462100  0.30316000  1
  H  308  1  0.87315400  0.13998550  0.33889900  1
  H  310  1  0.96501300  0.37406400  0.36359600  1
  H  312  1  0.36700900  0.97927250  0.31666300  1
  H  321  1  0.33154300  0.48635500  0.68932000  1
  H  322  1  0.18896900  0.48055250  0.68324500  1
  H  324  1  0.86583500  0.94697600  0.64754600  1
  H  325  1  0.92827600  0.98884650  0.62681000  1
  H  326  1  0.90236600  0.02416900  0.66247300  1
  H  328  1  0.04605000  0.03357700  0.64774600  1
  H  329  1  0.16457100  0.95451000  0.63652100  1
  H  330  1  0.14061500  0.98599650  0.67231400  1
  H  331  1  0.37374500  0.66088650  0.69608100  1
  H  333  1  0.97846800  0.65404350  0.64966200  1
  N  2  1  0.92297800  0.06945650  0.86535300  1
  N  13  1  0.55717700  0.43692150  0.01237900  1
  N  14  1  0.42797200  0.56822300  0.66449400  1
  N  31  1  0.18327300  0.80238100  0.66588100  1
  N  35  1  0.79779100  0.18290050  0.99395700  1
  N  43  1  0.93910100  0.07030300  0.75594500  1
  N  45  1  0.89223700  0.13068950  0.81227400  1
  N  64  1  0.11432400  0.92209800  0.89469800  1
  N  65  1  0.99100600  0.93850450  0.42267000  1
  N  66  1  0.92271700  0.96283600  0.22811800  1
  N  136  1  0.56879900  0.00342950  0.99790300  1
  N  137  1  0.07114500  0.99008450  0.08939500  1
  N  179  1  0.43679700  0.00686750  0.34589000  1
  N  180  1  0.00236700  0.42770000  0.33160300  1
  N  219  1  0.00591200  0.55670800  0.67893700  1
  N  221  1  0.96430200  0.11373550  0.56132200  1
  N  231  1  0.13143900  0.97681000  0.14573200  1
  N  234  1  0.07019300  0.00724250  0.19879900  1
  N  252  1  0.97710900  0.89215450  0.47902600  1
  N  255  1  0.00758900  0.92301600  0.53207000  1
  N  275  1  0.80300000  0.01397550  0.99929900  1
  N  295  1  0.18292100  0.01989850  0.32722600  1
  N  298  1  0.01378100  0.18321300  0.33275200  1
  N  319  1  0.01953300  0.79726300  0.66051800  1
