# generated using pymatgen
data_H24C39(N2O)4
_symmetry_space_group_name_H-M   'P 1'
_cell_length_a   39.58492429
_cell_length_b   39.58547697
_cell_length_c   39.58437155
_cell_angle_alpha   70.52978385
_cell_angle_beta   70.53212229
_cell_angle_gamma   109.47556809
_symmetry_Int_Tables_number   1
_chemical_formula_structural   H24C39(N2O)4
_chemical_formula_sum   'H144 C234 N48 O24'
_cell_volume   47749.36084305
_cell_formula_units_Z   6
loop_
 _symmetry_equiv_pos_site_id
 _symmetry_equiv_pos_as_xyz
  1  'x, y, z'
loop_
 _atom_site_type_symbol
 _atom_site_label
 _atom_site_symmetry_multiplicity
 _atom_site_fract_x
 _atom_site_fract_y
 _atom_site_fract_z
 _atom_site_occupancy
  C  1  1  0.85567100  0.33700450  0.49066850  1
  C  2  1  0.89473200  0.36656650  0.47982450  1
  C  3  1  0.92491450  0.36850900  0.44779450  1
  C  4  1  0.90631900  0.34036250  0.43682350  1
  C  5  1  0.93216000  0.33603950  0.40562550  1
  C  6  1  0.97598500  0.35960700  0.38649800  1
  C  7  1  0.99318100  0.38942000  0.39701700  1
  C  8  1  0.96798400  0.39377850  0.42784450  1
  C  9  1  0.89991700  0.38957900  0.49989600  1
  C  10  1  0.86465450  0.38382500  0.53073950  1
  C  11  1  0.82437550  0.35610100  0.54114450  1
  C  12  1  0.82006950  0.33152350  0.52188200  1
  C  13  1  0.83707700  0.32190500  0.44096000  1
  C  14  1  0.80867850  0.28307300  0.45026350  1
  C  15  1  0.81221300  0.25289400  0.47693400  1
  C  16  1  0.84160200  0.27199700  0.48637700  1
  C  17  1  0.79313000  0.21005450  0.49183750  1
  C  18  1  0.80473150  0.18626100  0.51582350  1
  C  19  1  0.83396700  0.20418300  0.52670400  1
  C  20  1  0.85203600  0.24762700  0.51158800  1
  C  21  1  0.83778300  0.35751250  0.41586750  1
  C  22  1  0.80944050  0.35451450  0.40076700  1
  C  23  1  0.78077500  0.31439000  0.41152800  1
  C  24  1  0.78074500  0.27885050  0.43535650  1
  C  37  1  0.86019850  0.31785550  0.46371000  1
  C  46  1  0.25101900  0.73524900  0.48730000  1
  C  47  1  0.23249950  0.70564500  0.47775250  1
  C  48  1  0.26274200  0.70387400  0.44949300  1
  C  49  1  0.30176250  0.73214950  0.44001700  1
  C  50  1  0.33741900  0.73661300  0.40990500  1
  C  51  1  0.33320500  0.71304800  0.38962400  1
  C  52  1  0.29296600  0.68314100  0.40211900  1
  C  53  1  0.25764800  0.67864600  0.43162600  1
  C  54  1  0.18944100  0.68242800  0.49556600  1
  C  55  1  0.16417850  0.68801200  0.52511950  1
  C  56  1  0.18129550  0.71577050  0.53773000  1
  C  57  1  0.22510950  0.74053900  0.51748450  1
  C  58  1  0.31573350  0.75050200  0.49098550  1
  C  59  1  0.34511150  0.78934050  0.48069400  1
  C  60  1  0.34862100  0.81952600  0.44698100  1
  C  61  1  0.32020900  0.80040300  0.43657700  1
  C  62  1  0.37640250  0.86239900  0.42335250  1
  C  63  1  0.37624450  0.88618550  0.38792400  1
  C  64  1  0.34755250  0.86824250  0.37650800  1
  C  65  1  0.31933700  0.82476950  0.40179850  1
  C  66  1  0.30534300  0.71485050  0.52574950  1
  C  67  1  0.32336350  0.71779450  0.55116500  1
  C  68  1  0.35251950  0.75792850  0.53990300  1
  C  69  1  0.36413600  0.79351850  0.50449850  1
  C  82  1  0.29714350  0.75453750  0.46372100  1
  C  91  1  0.55475300  0.20839900  0.26452600  1
  C  92  1  0.56428750  0.18964000  0.29402950  1
  C  93  1  0.59257950  0.21970500  0.29595650  1
  C  94  1  0.60213400  0.25883900  0.26784700  1
  C  95  1  0.63226350  0.29433850  0.26359600  1
  C  96  1  0.65251450  0.28986350  0.28716400  1
  C  97  1  0.63993250  0.24951050  0.31690000  1
  C  98  1  0.61039950  0.21434850  0.32119900  1
  C  99  1  0.54641350  0.14654900  0.31702650  1
  C  100  1  0.51686200  0.12150250  0.31127750  1
  C  101  1  0.50432100  0.13887700  0.28356800  1
  C  102  1  0.52462300  0.18271650  0.25901750  1
  C  103  1  0.55130750  0.27319550  0.24949700  1
  C  104  1  0.56162750  0.30266700  0.21069250  1
  C  105  1  0.59524600  0.30611350  0.18044950  1
  C  106  1  0.60564950  0.27767450  0.19951900  1
  C  107  1  0.61890800  0.33397350  0.13759450  1
  C  108  1  0.65428450  0.33378000  0.11375050  1
  C  109  1  0.66566300  0.30502050  0.13162350  1
  C  110  1  0.64037900  0.27677600  0.17509400  1
  C  111  1  0.51660600  0.26283400  0.28519200  1
  C  112  1  0.49128350  0.28098100  0.28231250  1
  C  113  1  0.50255100  0.31021950  0.24221950  1
  C  114  1  0.53786100  0.32175350  0.20658550  1
  C  127  1  0.57847000  0.25449850  0.24538350  1
  C  136  1  0.55151450  0.81329600  0.66317050  1
  C  137  1  0.56235400  0.85234650  0.63360250  1
  C  138  1  0.59439400  0.88253550  0.63164950  1
  C  139  1  0.60536900  0.86394850  0.65979450  1
  C  140  1  0.63661650  0.88979550  0.66406700  1
  C  141  1  0.65578550  0.93362000  0.64045550  1
  C  142  1  0.64524950  0.95080400  0.61065450  1
  C  143  1  0.61436350  0.92559950  0.60635600  1
  C  144  1  0.54227600  0.85751000  0.61059300  1
  C  145  1  0.51142700  0.82223050  0.61636750  1
  C  146  1  0.50100900  0.78196350  0.64412850  1
  C  147  1  0.52027150  0.77767950  0.66870400  1
  C  148  1  0.60121400  0.79470450  0.67823950  1
  C  149  1  0.59185650  0.76624050  0.71706500  1
  C  150  1  0.56515400  0.76972800  0.74726300  1
  C  151  1  0.55579000  0.79919400  0.72816900  1
  C  152  1  0.55023500  0.75062100  0.79010300  1
  C  153  1  0.52622500  0.76218550  0.81392150  1
  C  154  1  0.51537200  0.79145650  0.79601550  1
  C  155  1  0.53055300  0.80959500  0.75255700  1
  C  156  1  0.62648250  0.79558850  0.64259100  1
  C  157  1  0.64167200  0.76732050  0.64553950  1
  C  158  1  0.63084600  0.73857200  0.68565600  1
  C  159  1  0.60682900  0.73836500  0.72124000  1
  C  172  1  0.57847950  0.81782950  0.68230800  1
  C  181  1  0.38286650  0.56313150  0.13610500  1
  C  182  1  0.41104950  0.55221850  0.11747300  1
  C  183  1  0.40920850  0.52025350  0.14762800  1
  C  184  1  0.37966650  0.50938150  0.18670700  1
  C  185  1  0.37430700  0.47825000  0.22228100  1
  C  186  1  0.39896750  0.45908250  0.21792800  1
  C  187  1  0.42666150  0.46950250  0.17763500  1
  C  188  1  0.43231250  0.50028150  0.14239700  1
  C  189  1  0.43625850  0.57215750  0.07439900  1
  C  190  1  0.43183700  0.60294700  0.04923800  1
  C  191  1  0.40199850  0.61341850  0.06647300  1
  C  192  1  0.37848200  0.59429650  0.11030250  1
  C  193  1  0.31458500  0.51354900  0.20092600  1
  C  194  1  0.29552000  0.52298950  0.23033150  1
  C  195  1  0.32574050  0.54970750  0.23379300  1
  C  196  1  0.36455450  0.55906150  0.20530200  1
  C  197  1  0.32160950  0.56464100  0.26170150  1
  C  198  1  0.35722050  0.58865600  0.26146450  1
  C  199  1  0.39732150  0.59950400  0.23266450  1
  C  200  1  0.40022600  0.58432350  0.20439050  1
  C  201  1  0.29016800  0.48821700  0.19061900  1
  C  202  1  0.24669500  0.47297400  0.20880900  1
  C  203  1  0.22881850  0.48389550  0.23802500  1
  C  204  1  0.25266350  0.50798250  0.24952200  1
  C  217  1  0.36045350  0.53627850  0.18222300  1
  C  226  1  0.77478050  0.56012550  0.74100200  1
  C  227  1  0.74676700  0.55060100  0.78016400  1
  C  228  1  0.74880200  0.52236850  0.81016550  1
  C  229  1  0.77828950  0.51284700  0.79134150  1
  C  230  1  0.78384200  0.48272750  0.81697250  1
  C  231  1  0.75939450  0.46246900  0.86081950  1
  C  232  1  0.73173850  0.47503250  0.87825300  1
  C  233  1  0.72592150  0.50454900  0.85325950  1
  C  234  1  0.72153250  0.56842100  0.78559350  1
  C  235  1  0.72576950  0.59794750  0.75047400  1
  C  236  1  0.75542750  0.61051600  0.71009350  1
  C  237  1  0.77897050  0.59024850  0.70554600  1
  C  238  1  0.84317600  0.56385350  0.72197550  1
  C  239  1  0.86224650  0.55367100  0.69330950  1
  C  240  1  0.83204750  0.51995850  0.69683000  1
  C  241  1  0.79324450  0.50939800  0.72652150  1
  C  242  1  0.83622550  0.49640000  0.67750650  1
  C  243  1  0.80067600  0.46091800  0.68917600  1
  C  244  1  0.76058000  0.44933850  0.71870350  1
  C  245  1  0.75761950  0.47455950  0.73697100  1
  C  246  1  0.86756550  0.59857550  0.72291400  1
  C  247  1  0.91099200  0.62401700  0.69452700  1
  C  248  1  0.92886300  0.61285700  0.66554600  1
  C  249  1  0.90506000  0.57751550  0.66528250  1
  C  262  1  0.79732300  0.53653800  0.74525300  1
  C  541  1  0.73859100  0.38969950  0.68108150  1
  C  542  1  0.75228450  0.42488900  0.64414450  1
  C  543  1  0.76883550  0.42625300  0.60559550  1
  C  544  1  0.77094450  0.39095000  0.60522150  1
  C  548  1  0.78242400  0.46420950  0.56774450  1
  C  552  1  0.78911300  0.38746350  0.56938850  1
  C  553  1  0.71799800  0.38431150  0.72103250  1
  C  556  1  0.00813200  0.68316200  0.65728400  1
  C  557  1  0.00944900  0.64757950  0.67853550  1
  C  558  1  0.04639850  0.64583050  0.66328600  1
  C  559  1  0.08229050  0.68116400  0.62607750  1
  C  563  1  0.04578250  0.60740100  0.68732050  1
  C  567  1  0.12136150  0.68426750  0.60431000  1
  C  568  1  0.97370950  0.68876700  0.67241150  1
  C  571  1  0.41945550  0.65938300  0.26999050  1
  C  572  1  0.40508750  0.68202950  0.24888300  1
  C  573  1  0.38834700  0.70386100  0.26417800  1
  C  574  1  0.38678850  0.70261950  0.30126700  1
  C  578  1  0.37385450  0.72731550  0.24031700  1
  C  582  1  0.36856700  0.72020150  0.32300050  1
  C  583  1  0.44010250  0.64008350  0.25473300  1
  C  586  1  0.14943300  0.41320800  0.24662700  1
  C  587  1  0.14784950  0.39048500  0.28364350  1
  C  588  1  0.11073850  0.36873400  0.32221450  1
  C  589  1  0.07495350  0.37013150  0.32252800  1
  C  593  1  0.11106700  0.34514000  0.36016300  1
  C  597  1  0.03569350  0.35268100  0.35833250  1
  C  598  1  0.18397150  0.43241200  0.20669550  1
  C  601  1  0.38497700  0.96546600  0.31701700  1
  C  602  1  0.36369850  0.96704750  0.35240300  1
  C  603  1  0.37889450  0.00418950  0.35384200  1
  C  604  1  0.41606700  0.04001350  0.31838950  1
  C  608  1  0.35482450  0.00385400  0.39206750  1
  C  612  1  0.43769150  0.07936350  0.31486600  1
  C  613  1  0.36981500  0.93091800  0.31159300  1
  C  616  1  0.36104850  0.69580450  0.61070200  1
  C  617  1  0.39805700  0.71008400  0.57526700  1
  C  618  1  0.43662850  0.72681250  0.57382800  1
  C  619  1  0.43695100  0.72845350  0.60932450  1
  C  623  1  0.47456550  0.74119400  0.53552450  1
  C  627  1  0.47276200  0.74665950  0.61283950  1
  C  628  1  0.32109700  0.67516950  0.61609950  1
  C  631  1  0.79611050  0.10698750  0.58654400  1
  C  632  1  0.75918000  0.10551250  0.60931050  1
  C  633  1  0.72054450  0.06845600  0.63112950  1
  C  634  1  0.72007900  0.03262950  0.62971750  1
  C  638  1  0.68269700  0.06888950  0.65480450  1
  C  642  1  0.68417650  0.99343200  0.64718350  1
  C  643  1  0.83610150  0.14148200  0.56723350  1
  C  646  1  0.77190300  0.37641950  0.34109550  1
  C  647  1  0.79336150  0.36249450  0.31813800  1
  C  648  1  0.77816050  0.34566650  0.29630800  1
  C  649  1  0.74078950  0.34353800  0.29789750  1
  C  653  1  0.80245150  0.33177950  0.27240200  1
  C  657  1  0.71906450  0.32498900  0.28049750  1
  C  658  1  0.78701600  0.39705550  0.36046950  1
  C  661  1  0.45565400  0.75362650  0.89321850  1
  C  662  1  0.43269400  0.71671750  0.89475950  1
  C  663  1  0.41087500  0.67808500  0.93181000  1
  C  664  1  0.41249600  0.67760300  0.96756200  1
  C  668  1  0.38694400  0.64025800  0.93148200  1
  C  672  1  0.39509750  0.64168600  0.00670650  1
  C  673  1  0.47499100  0.79362300  0.85873900  1
  C  676  1  0.70152150  0.72997300  0.62360050  1
  C  677  1  0.72429500  0.75128950  0.63774450  1
  C  678  1  0.74608500  0.73605500  0.65460500  1
  C  679  1  0.74465300  0.69879850  0.65653150  1
  C  683  1  0.76974450  0.76017000  0.66878050  1
  C  687  1  0.76209800  0.67707900  0.67500700  1
  C  688  1  0.68219800  0.74512100  0.60291900  1
  C  691  1  0.72537300  0.34275150  0.03434450  1
  C  692  1  0.69009400  0.32152950  0.03257950  1
  C  693  1  0.68884450  0.33682450  0.99533600  1
  C  694  1  0.72434150  0.37405650  0.95962900  1
  C  698  1  0.65076150  0.31277300  0.99544450  1
  C  702  1  0.72802100  0.39577950  0.92021650  1
  C  703  1  0.73066950  0.32741150  0.06895400  1
  C  706  1  0.43206400  0.31892750  0.30445950  1
  C  707  1  0.46759200  0.35588200  0.29012300  1
  C  708  1  0.46918850  0.39451950  0.27326500  1
  C  709  1  0.43375650  0.39495950  0.27155000  1
  C  713  1  0.50755700  0.43239500  0.25888000  1
  C  717  1  0.43043900  0.43084100  0.25312300  1
  C  718  1  0.42658350  0.27894950  0.32515800  1
  H  25  1  0.75784800  0.31010500  0.40426800  1
  H  26  1  0.75883400  0.25022650  0.44387650  1
  H  27  1  0.77299300  0.19662450  0.48336650  1
  H  28  1  0.79314600  0.15604650  0.52318050  1
  H  29  1  0.87460200  0.26217700  0.51706200  1
  H  30  1  0.85764000  0.38553250  0.41056350  1
  H  31  1  0.91914700  0.31469750  0.39815750  1
  H  32  1  0.02456200  0.40783450  0.38269350  1
  H  33  1  0.98113100  0.41462650  0.43574550  1
  H  34  1  0.79130000  0.31102850  0.52927850  1
  H  35  1  0.92862500  0.41059850  0.49211150  1
  H  36  1  0.86864400  0.40077900  0.54517600  1
  H  39  1  0.87740400  0.20041600  0.54015700  1
  H  41  1  0.77476900  0.32737100  0.59699900  1
  H  43  1  0.00313800  0.36568750  0.33071550  1
  H  45  1  0.81876500  0.41123550  0.38765350  1
  H  70  1  0.36403400  0.76215550  0.55858150  1
  H  71  1  0.38419700  0.82212950  0.49785350  1
  H  72  1  0.39827400  0.87585100  0.43008200  1
  H  73  1  0.39905550  0.91642000  0.36934350  1
  H  74  1  0.29943500  0.81018700  0.39369000  1
  H  75  1  0.28277800  0.68681450  0.53375750  1
  H  76  1  0.36616200  0.75799900  0.40167800  1
  H  77  1  0.28904900  0.66474700  0.38911200  1
  H  78  1  0.22896800  0.65769750  0.43927950  1
  H  79  1  0.23807050  0.76105700  0.52580050  1
  H  80  1  0.17634800  0.66137250  0.48784750  1
  H  81  1  0.13280650  0.67091900  0.53805450  1
  H  84  1  0.33785350  0.87199100  0.32930950  1
  H  86  1  0.15451550  0.74461800  0.55907850  1
  H  88  1  0.38262150  0.70652800  0.36893850  1
  H  90  1  0.27997850  0.66083600  0.59826550  1
  H  115  1  0.48391750  0.32181650  0.23804200  1
  H  116  1  0.54453450  0.34189550  0.17799800  1
  H  117  1  0.61216550  0.35584400  0.12417450  1
  H  118  1  0.67284550  0.35658700  0.08351450  1
  H  119  1  0.64845600  0.25681500  0.18963200  1
  H  120  1  0.50858300  0.24020950  0.31319650  1
  H  121  1  0.64055450  0.32315950  0.24231600  1
  H  122  1  0.65285700  0.24538500  0.33534900  1
  H  123  1  0.60266650  0.18558600  0.34204950  1
  H  124  1  0.51632750  0.19585200  0.23856150  1
  H  125  1  0.55411950  0.13328000  0.33801450  1
  H  126  1  0.50386700  0.09010600  0.32821200  1
  H  129  1  0.71283050  0.29527150  0.12789200  1
  H  131  1  0.48363750  0.11171100  0.25484650  1
  H  133  1  0.67368150  0.33986700  0.29289250  1
  H  135  1  0.44413500  0.23757550  0.33923350  1
  H  160  1  0.63816450  0.71568850  0.68990200  1
  H  161  1  0.59834850  0.71645550  0.74984800  1
  H  162  1  0.55867900  0.73045400  0.80352900  1
  H  163  1  0.51884900  0.75056150  0.84414150  1
  H  164  1  0.52513700  0.83220900  0.73800500  1
  H  165  1  0.63186950  0.81553600  0.61456650  1
  H  166  1  0.64410550  0.87678750  0.68539000  1
  H  167  1  0.65960050  0.98218000  0.59220750  1
  H  168  1  0.60647300  0.93874050  0.58549550  1
  H  169  1  0.51289150  0.74891700  0.68919550  1
  H  170  1  0.55007800  0.88621100  0.58954400  1
  H  171  1  0.49699200  0.82619900  0.59940800  1
  H  174  1  0.50179350  0.83482200  0.79982750  1
  H  176  1  0.44504000  0.73245300  0.67284500  1
  H  178  1  0.71160150  0.96065450  0.63450100  1
  H  180  1  0.65516250  0.77701100  0.58864550  1
  H  205  1  0.19858300  0.47646600  0.24969200  1
  H  206  1  0.23923550  0.51641100  0.26970550  1
  H  207  1  0.29301200  0.55618800  0.28360700  1
  H  208  1  0.35302100  0.59599900  0.28433000  1
  H  209  1  0.42823200  0.58967850  0.18444350  1
  H  210  1  0.30470400  0.48275750  0.16803450  1
  H  211  1  0.35382300  0.47083200  0.25106300  1
  H  212  1  0.44368000  0.45513450  0.17360450  1
  H  213  1  0.45331600  0.50808150  0.11367550  1
  H  214  1  0.35711400  0.60172050  0.12334350  1
  H  215  1  0.45716450  0.56432900  0.06122350  1
  H  216  1  0.45023600  0.61728650  0.01785550  1
  H  219  1  0.45424950  0.61299200  0.22287850  1
  H  221  1  0.40757400  0.66902550  0.03965550  1
  H  223  1  0.37019700  0.40341600  0.26796700  1
  H  225  1  0.24289000  0.45932600  0.16547800  1
  H  250  1  0.95903150  0.63159800  0.64258750  1
  H  251  1  0.91844400  0.57095700  0.64322500  1
  H  252  1  0.86482650  0.50328900  0.65714950  1
  H  253  1  0.80493750  0.44243650  0.67739500  1
  H  254  1  0.72961400  0.46635450  0.75974750  1
  H  255  1  0.85303400  0.60651800  0.74302600  1
  H  256  1  0.80426800  0.47442300  0.80380000  1
  H  257  1  0.71483500  0.46202250  0.90965450  1
  H  258  1  0.70492600  0.51222450  0.86657250  1
  H  259  1  0.80022000  0.59855800  0.67670600  1
  H  260  1  0.70076150  0.56072250  0.81437400  1
  H  261  1  0.70733750  0.61088300  0.75464850  1
  H  264  1  0.70376150  0.40203000  0.76224750  1
  H  266  1  0.74962450  0.63168950  0.66014500  1
  H  268  1  0.78799850  0.44177050  0.88812800  1
  H  270  1  0.91477550  0.67111600  0.70441750  1
  H  546  1  0.74930300  0.44914800  0.64560900  1
  H  549  1  0.77584400  0.48663400  0.57449800  1
  H  550  1  0.76643800  0.45601250  0.55152450  1
  H  551  1  0.81575350  0.47957550  0.54736900  1
  H  561  1  0.98356450  0.62327400  0.70561050  1
  H  564  1  0.01647750  0.58495900  0.71619350  1
  H  565  1  0.07010000  0.61495300  0.69532200  1
  H  566  1  0.05061700  0.59232200  0.66902000  1
  H  576  1  0.40769450  0.68322450  0.22184900  1
  H  579  1  0.37977150  0.72657450  0.21164700  1
  H  580  1  0.38976700  0.75971050  0.23197550  1
  H  581  1  0.34055400  0.71411100  0.25890000  1
  H  591  1  0.17364800  0.38919650  0.28223650  1
  H  594  1  0.14036600  0.34562650  0.35349150  1
  H  595  1  0.08682900  0.31282100  0.37670100  1
  H  596  1  0.10593350  0.35841900  0.38021350  1
  H  606  1  0.33661700  0.94122050  0.37677350  1
  H  609  1  0.32606000  0.97449800  0.41470300  1
  H  610  1  0.34662900  0.02799950  0.38429250  1
  H  611  1  0.37319150  0.00913850  0.40700800  1
  H  621  1  0.39664100  0.70743650  0.55085750  1
  H  624  1  0.46789300  0.73518000  0.51281800  1
  H  625  1  0.49102550  0.72528700  0.54317150  1
  H  626  1  0.49469100  0.77450200  0.52071800  1
  H  636  1  0.76069900  0.13134000  0.61060300  1
  H  639  1  0.68949400  0.09818150  0.65438150  1
  H  640  1  0.66615100  0.04460050  0.68710650  1
  H  641  1  0.66260400  0.06389250  0.64154450  1
  H  651  1  0.82055350  0.36545600  0.31674650  1
  H  654  1  0.83144550  0.33842900  0.27261650  1
  H  655  1  0.81025300  0.34750100  0.24016600  1
  H  656  1  0.78442500  0.29840950  0.28562350  1
  H  666  1  0.43128500  0.71825250  0.86897350  1
  H  669  1  0.38711200  0.64708400  0.90229800  1
  H  670  1  0.35472050  0.62374400  0.95594550  1
  H  671  1  0.40018200  0.62012700  0.93627300  1
  H  681  1  0.72557950  0.77840900  0.63492250  1
  H  684  1  0.76936000  0.78905500  0.66234200  1
  H  685  1  0.80203200  0.76813400  0.65309100  1
  H  686  1  0.75644700  0.74194950  0.70213450  1
  H  696  1  0.66570400  0.29438600  0.05831700  1
  H  699  1  0.62807100  0.28395600  0.02473700  1
  H  700  1  0.65871750  0.30466950  0.97124600  1
  H  701  1  0.63580600  0.33111100  0.99010300  1
  H  711  1  0.49196300  0.35438550  0.29280250  1
  H  714  1  0.53010800  0.42562250  0.26515250  1
  H  715  1  0.49995350  0.44903700  0.27457050  1
  H  716  1  0.52252950  0.45239100  0.22552850  1
  N  38  1  0.84972300  0.18287000  0.54596700  1
  N  40  1  0.79111000  0.35313450  0.57068350  1
  N  42  1  0.00267300  0.35595700  0.35698100  1
  N  44  1  0.80717700  0.38943750  0.38169950  1
  N  83  1  0.34962500  0.88954350  0.33942350  1
  N  85  1  0.15452350  0.71855100  0.56804050  1
  N  87  1  0.36653350  0.71682100  0.35936350  1
  N  89  1  0.30758450  0.68277050  0.58823800  1
  N  128  1  0.70278550  0.30715500  0.11032350  1
  N  130  1  0.47402300  0.11237650  0.28053550  1
  N  132  1  0.68278850  0.32300350  0.28361800  1
  N  134  1  0.45429850  0.26528600  0.31739050  1
  N  173  1  0.49608550  0.80718350  0.81735200  1
  N  175  1  0.47142500  0.74866750  0.64718250  1
  N  177  1  0.68537350  0.96030350  0.64404000  1
  N  179  1  0.66096400  0.76527350  0.61052650  1
  N  218  1  0.43236400  0.61875550  0.23468650  1
  N  220  1  0.39828800  0.64289200  0.03980500  1
  N  222  1  0.39612100  0.42960400  0.25113600  1
  N  224  1  0.22535950  0.45367800  0.19308550  1
  N  263  1  0.72562950  0.41215050  0.73457200  1
  N  265  1  0.75893300  0.64079350  0.67699050  1
  N  267  1  0.76240550  0.43212950  0.88729000  1
  N  269  1  0.93231300  0.66102450  0.69257450  1
  N  545  1  0.75633100  0.35831150  0.64262050  1
  N  547  1  0.74088400  0.35735750  0.67789050  1
  N  560  1  0.07795700  0.71420000  0.60830200  1
  N  562  1  0.04384400  0.71549050  0.62284450  1
  N  575  1  0.40200000  0.68036650  0.31893350  1
  N  577  1  0.41758050  0.66066350  0.30436500  1
  N  590  1  0.07956800  0.39243450  0.28506450  1
  N  592  1  0.11382550  0.41206100  0.24978150  1
  N  605  1  0.43388300  0.03540350  0.28557550  1
  N  607  1  0.41940150  0.00111550  0.28457200  1
  N  620  1  0.39949200  0.71329200  0.64218000  1
  N  622  1  0.36420900  0.69772100  0.64318500  1
  N  635  1  0.75747550  0.03714050  0.60736500  1
  N  637  1  0.79282300  0.07134250  0.58769250  1
  N  650  1  0.72279000  0.35837100  0.32041500  1
  N  652  1  0.73728750  0.37405550  0.34010100  1
  N  665  1  0.43499050  0.71497650  0.96301400  1
  N  667  1  0.45465850  0.75032550  0.92881400  1
  N  680  1  0.72234200  0.68095600  0.64145900  1
  N  682  1  0.70268850  0.69548200  0.62575250  1
  N  695  1  0.75701850  0.39184100  0.96443850  1
  N  697  1  0.75786850  0.37725450  0.99880400  1
  N  710  1  0.40080400  0.35754600  0.28676600  1
  N  712  1  0.39965450  0.32220150  0.30246100  1
  O  554  1  0.81077500  0.42164450  0.53144250  1
  O  555  1  0.68350100  0.34677850  0.74869150  1
  O  569  1  0.12477500  0.64986350  0.61667350  1
  O  570  1  0.98371850  0.72614850  0.66979700  1
  O  584  1  0.34734600  0.73702450  0.31025450  1
  O  585  1  0.47476150  0.64717600  0.25750250  1
  O  599  1  0.03185250  0.33637350  0.39630500  1
  O  600  1  0.17405800  0.42523600  0.17918700  1
  O  614  1  0.42505700  0.08328700  0.34894100  1
  O  615  1  0.37255400  0.94079300  0.27417400  1
  O  629  1  0.51078700  0.76797050  0.57882850  1
  O  630  1  0.29359700  0.64040700  0.65346100  1
  O  644  1  0.64628050  0.98979950  0.66331900  1
  O  645  1  0.86367000  0.13154950  0.57422750  1
  O  659  1  0.73151800  0.30310100  0.26454300  1
  O  660  1  0.78378200  0.43143550  0.35374850  1
  O  674  1  0.37926250  0.60383000  0.01021150  1
  O  675  1  0.46772800  0.82107000  0.86870200  1
  O  689  1  0.77805400  0.68950800  0.69690200  1
  O  690  1  0.68934850  0.74231050  0.56827500  1
  O  704  1  0.69408350  0.38313650  0.91607500  1
  O  705  1  0.76811300  0.33023200  0.05912700  1
  O  719  1  0.46474700  0.46872700  0.23116200  1
  O  720  1  0.38910600  0.25139350  0.35975650  1
