# generated using pymatgen
data_Gd3H44(C5O)16
_symmetry_space_group_name_H-M   'P 1'
_cell_length_a   15.88091000
_cell_length_b   30.05149068
_cell_length_c   32.26398000
_cell_angle_alpha   90.00058841
_cell_angle_beta   90.00947000
_cell_angle_gamma   105.06113259
_symmetry_Int_Tables_number   1
_chemical_formula_structural   Gd3H44(C5O)16
_chemical_formula_sum   'Gd12 H176 C320 O64'
_cell_volume   14868.89480715
_cell_formula_units_Z   4
loop_
 _symmetry_equiv_pos_site_id
 _symmetry_equiv_pos_as_xyz
  1  'x, y, z'
loop_
 _atom_site_type_symbol
 _atom_site_label
 _atom_site_symmetry_multiplicity
 _atom_site_fract_x
 _atom_site_fract_y
 _atom_site_fract_z
 _atom_site_occupancy
  Gd  Gd0  1  0.34319000  0.26647000  0.27325000  1
  Gd  Gd1  1  0.15838000  0.73509000  0.27441000  1
  Gd  Gd2  1  0.92494000  0.26525000  0.22632000  1
  Gd  Gd3  1  0.57571000  0.73532000  0.22602000  1
  Gd  Gd4  1  0.65809000  0.73520000  0.72658000  1
  Gd  Gd5  1  0.84229000  0.26469000  0.72610000  1
  Gd  Gd6  1  0.07564000  0.73547000  0.77365000  1
  Gd  Gd7  1  0.42432000  0.26452000  0.77384000  1
  Gd  Gd8  1  0.10385000  0.20589000  0.25036000  1
  Gd  Gd9  1  0.39614000  0.79382000  0.25018000  1
  Gd  Gd10  1  0.89689000  0.79526000  0.75029000  1
  Gd  Gd11  1  0.60318000  0.20485000  0.75058000  1
  H  H12  1  0.25992000  0.46617000  0.43067000  1
  H  H13  1  0.10107000  0.34555000  0.48990000  1
  H  H14  1  0.18605000  0.47234000  0.55834000  1
  H  H15  1  0.31125000  0.40985000  0.40023000  1
  H  H16  1  0.30720000  0.36572000  0.33480000  1
  H  H17  1  0.04144000  0.29191000  0.35963000  1
  H  H18  1  0.04408000  0.33698000  0.42453000  1
  H  H19  1  0.11639000  0.31573000  0.54864000  1
  H  H20  1  0.04117000  0.27437000  0.61053000  1
  H  H21  1  0.99779000  0.40050000  0.65660000  1
  H  H22  1  0.06749000  0.44187000  0.59352000  1
  H  H23  1  0.80353000  0.03666000  0.41533000  1
  H  H24  1  0.80067000  0.15881000  0.48465000  1
  H  H25  1  0.71252000  0.02551000  0.54145000  1
  H  H26  1  0.75775000  0.17766000  0.42204000  1
  H  H27  1  0.80563000  0.22588000  0.35980000  1
  H  H28  1  0.97116000  0.13873000  0.32514000  1
  H  H29  1  0.92407000  0.09115000  0.38741000  1
  H  H30  1  0.61828000  0.06541000  0.57058000  1
  H  H31  1  0.59466000  0.10111000  0.63783000  1
  H  H32  1  0.83122000  0.20791000  0.61944000  1
  H  H33  1  0.85524000  0.17230000  0.55241000  1
  H  H34  1  0.24145000  0.53442000  0.43077000  1
  H  H35  1  0.39924000  0.65480000  0.49090000  1
  H  H36  1  0.31286000  0.52763000  0.55869000  1
  H  H37  1  0.18950000  0.59042000  0.40063000  1
  H  H38  1  0.19329000  0.63425000  0.33504000  1
  H  H39  1  0.45907000  0.70804000  0.35954000  1
  H  H40  1  0.45666000  0.66342000  0.42467000  1
  H  H41  1  0.38408000  0.68407000  0.55072000  1
  H  H42  1  0.45865000  0.72412000  0.61323000  1
  H  H43  1  0.50322000  0.59732000  0.65685000  1
  H  H44  1  0.43370000  0.55729000  0.59325000  1
  H  H45  1  0.69715000  0.96322000  0.41520000  1
  H  H46  1  0.69940000  0.84095000  0.48446000  1
  H  H47  1  0.78720000  0.97413000  0.54150000  1
  H  H48  1  0.74179000  0.82191000  0.42203000  1
  H  H49  1  0.69300000  0.77360000  0.35980000  1
  H  H50  1  0.52895000  0.86132000  0.32500000  1
  H  H51  1  0.57660000  0.90910000  0.38723000  1
  H  H52  1  0.88163000  0.93416000  0.57038000  1
  H  H53  1  0.90525000  0.89871000  0.63776000  1
  H  H54  1  0.66814000  0.79221000  0.61978000  1
  H  H55  1  0.64392000  0.82767000  0.55269000  1
  H  H56  1  0.20676000  0.46593000  0.06987000  1
  H  H57  1  0.24342000  0.34488000  0.00991000  1
  H  H58  1  0.28480000  0.47208000  0.94195000  1
  H  H59  1  0.09881000  0.40967000  0.10040000  1
  H  H60  1  0.05858000  0.36499000  0.16550000  1
  H  H61  1  0.25092000  0.29082000  0.14021000  1
  H  H62  1  0.29321000  0.33626000  0.07557000  1
  H  H63  1  0.19823000  0.31570000  0.95019000  1
  H  H64  1  0.23329000  0.27460000  0.88834000  1
  H  H65  1  0.40456000  0.40043000  0.84390000  1
  H  H66  1  0.37522000  0.44139000  0.90709000  1
  H  H67  1  0.23366000  0.03658000  0.08417000  1
  H  H68  1  0.35832000  0.15862000  0.01507000  1
  H  H69  1  0.31244000  0.02537000  0.95786000  1
  H  H70  1  0.41992000  0.17736000  0.07756000  1
  H  H71  1  0.42056000  0.22546000  0.14000000  1
  H  H72  1  0.16943000  0.13868000  0.17519000  1
  H  H73  1  0.16863000  0.09112000  0.11278000  1
  H  H74  1  0.44619000  0.06439000  0.92924000  1
  H  H75  1  0.50610000  0.09966000  0.86197000  1
  H  H76  1  0.37768000  0.20779000  0.87986000  1
  H  H77  1  0.31710000  0.17249000  0.94677000  1
  H  H78  1  0.29305000  0.53424000  0.06964000  1
  H  H79  1  0.25667000  0.65516000  0.00934000  1
  H  H80  1  0.21303000  0.52748000  0.94196000  1
  H  H81  1  0.40135000  0.59045000  0.09990000  1
  H  H82  1  0.44129000  0.63474000  0.16522000  1
  H  H83  1  0.24903000  0.70903000  0.14015000  1
  H  H84  1  0.20715000  0.66408000  0.07528000  1
  H  H85  1  0.30153000  0.68390000  0.94974000  1
  H  H86  1  0.26681000  0.72491000  0.88770000  1
  H  H87  1  0.09518000  0.59915000  0.84338000  1
  H  H88  1  0.12400000  0.55832000  0.90675000  1
  H  H89  1  0.26549000  0.96306000  0.08419000  1
  H  H90  1  0.14131000  0.84100000  0.01500000  1
  H  H91  1  0.18679000  0.97427000  0.95786000  1
  H  H92  1  0.07855000  0.82293000  0.07806000  1
  H  H93  1  0.07741000  0.77510000  0.14078000  1
  H  H94  1  0.33002000  0.86080000  0.17515000  1
  H  H95  1  0.33118000  0.90824000  0.11264000  1
  H  H96  1  0.05244000  0.93509000  0.92915000  1
  H  H97  1  0.99238000  0.89966000  0.86201000  1
  H  H98  1  0.12275000  0.79224000  0.87944000  1
  H  H99  1  0.18356000  0.82765000  0.94634000  1
  H  H100  1  0.74032000  0.53439000  0.57004000  1
  H  H101  1  0.89912000  0.65466000  0.51023000  1
  H  H102  1  0.81302000  0.52759000  0.44227000  1
  H  H103  1  0.68923000  0.59115000  0.60035000  1
  H  H104  1  0.69344000  0.63572000  0.66548000  1
  H  H105  1  0.95959000  0.70876000  0.64056000  1
  H  H106  1  0.95675000  0.66320000  0.57594000  1
  H  H107  1  0.88354000  0.68427000  0.45125000  1
  H  H108  1  0.95924000  0.72537000  0.38939000  1
  H  H109  1  0.00266000  0.59909000  0.34383000  1
  H  H110  1  0.93212000  0.55788000  0.40677000  1
  H  H111  1  0.19673000  0.96349000  0.58421000  1
  H  H112  1  0.19939000  0.84117000  0.51509000  1
  H  H113  1  0.28673000  0.97433000  0.45793000  1
  H  H114  1  0.24200000  0.82229000  0.57788000  1
  H  H115  1  0.19381000  0.77419000  0.64021000  1
  H  H116  1  0.02914000  0.86170000  0.67483000  1
  H  H117  1  0.07633000  0.90931000  0.61252000  1
  H  H118  1  0.38136000  0.93472000  0.42912000  1
  H  H119  1  0.40593000  0.89902000  0.36202000  1
  H  H120  1  0.16998000  0.79172000  0.38015000  1
  H  H121  1  0.14480000  0.82744000  0.44694000  1
  H  H122  1  0.75772000  0.46569000  0.57011000  1
  H  H123  1  0.60131000  0.34520000  0.50958000  1
  H  H124  1  0.68689000  0.47261000  0.44209000  1
  H  H125  1  0.81036000  0.40956000  0.60010000  1
  H  H126  1  0.80717000  0.36509000  0.66526000  1
  H  H127  1  0.54171000  0.29082000  0.64058000  1
  H  H128  1  0.54334000  0.33615000  0.57593000  1
  H  H129  1  0.61714000  0.31619000  0.44972000  1
  H  H130  1  0.54254000  0.27598000  0.38717000  1
  H  H131  1  0.49764000  0.40270000  0.34351000  1
  H  H132  1  0.56671000  0.44278000  0.40714000  1
  H  H133  1  0.30244000  0.03631000  0.58443000  1
  H  H134  1  0.30102000  0.15906000  0.51576000  1
  H  H135  1  0.21315000  0.02626000  0.45804000  1
  H  H136  1  0.25727000  0.17731000  0.57834000  1
  H  H137  1  0.30604000  0.22566000  0.64055000  1
  H  H138  1  0.47147000  0.13842000  0.67493000  1
  H  H139  1  0.42377000  0.09069000  0.61274000  1
  H  H140  1  0.11969000  0.06617000  0.42908000  1
  H  H141  1  0.09699000  0.10215000  0.36176000  1
  H  H142  1  0.33415000  0.20823000  0.38042000  1
  H  H143  1  0.35749000  0.17255000  0.44772000  1
  H  H144  1  0.79211000  0.53424000  0.92944000  1
  H  H145  1  0.75673000  0.65535000  0.98976000  1
  H  H146  1  0.71454000  0.52792000  0.05743000  1
  H  H147  1  0.90134000  0.59078000  0.89961000  1
  H  H148  1  0.94203000  0.63552000  0.83453000  1
  H  H149  1  0.74914000  0.70945000  0.85942000  1
  H  H150  1  0.70633000  0.66387000  0.92397000  1
  H  H151  1  0.80225000  0.68437000  0.04932000  1
  H  H152  1  0.76736000  0.72558000  0.11120000  1
  H  H153  1  0.59575000  0.59988000  0.15564000  1
  H  H154  1  0.62495000  0.55878000  0.09247000  1
  H  H155  1  0.76686000  0.96350000  0.91648000  1
  H  H156  1  0.64184000  0.84143000  0.98547000  1
  H  H157  1  0.68697000  0.97470000  0.04261000  1
  H  H158  1  0.58005000  0.82315000  0.92284000  1
  H  H159  1  0.57862000  0.77541000  0.86005000  1
  H  H160  1  0.83064000  0.86138000  0.82522000  1
  H  H161  1  0.83226000  0.90876000  0.88782000  1
  H  H162  1  0.55306000  0.93558000  0.07125000  1
  H  H163  1  0.49168000  0.89998000  0.13809000  1
  H  H164  1  0.62114000  0.79216000  0.12063000  1
  H  H165  1  0.68264000  0.82770000  0.05399000  1
  H  H166  1  0.70569000  0.46567000  0.92963000  1
  H  H167  1  0.74327000  0.34509000  0.99015000  1
  H  H168  1  0.78615000  0.47287000  0.05725000  1
  H  H169  1  0.59796000  0.40932000  0.89940000  1
  H  H170  1  0.55817000  0.36476000  0.83424000  1
  H  H171  1  0.75058000  0.29065000  0.85969000  1
  H  H172  1  0.79257000  0.33601000  0.92439000  1
  H  H173  1  0.69840000  0.31671000  0.05034000  1
  H  H174  1  0.73484000  0.27627000  0.11247000  1
  H  H175  1  0.90807000  0.40244000  0.15496000  1
  H  H176  1  0.87699000  0.44266000  0.09161000  1
  H  H177  1  0.73395000  0.03686000  0.91628000  1
  H  H178  1  0.85864000  0.15903000  0.98518000  1
  H  H179  1  0.81295000  0.02590000  0.04259000  1
  H  H180  1  0.92106000  0.17714000  0.92250000  1
  H  H181  1  0.92163000  0.22538000  0.86002000  1
  H  H182  1  0.66977000  0.13912000  0.82519000  1
  H  H183  1  0.66873000  0.09149000  0.88758000  1
  H  H184  1  0.94764000  0.06523000  0.07105000  1
  H  H185  1  0.00808000  0.10077000  0.13813000  1
  H  H186  1  0.87750000  0.20808000  0.12068000  1
  H  H187  1  0.81640000  0.17252000  0.05393000  1
  C  C188  1  0.22712000  0.47525000  0.49447000  1
  C  C189  1  0.22558000  0.44957000  0.45800000  1
  C  C190  1  0.17996000  0.40292000  0.45584000  1
  C  C191  1  0.13681000  0.38166000  0.49139000  1
  C  C192  1  0.13963000  0.40590000  0.52879000  1
  C  C193  1  0.18437000  0.45291000  0.52976000  1
  C  C194  1  0.17774000  0.37674000  0.41696000  1
  C  C195  1  0.25149000  0.38484000  0.39096000  1
  C  C196  1  0.24976000  0.36003000  0.35448000  1
  C  C197  1  0.17398000  0.32625000  0.34303000  1
  C  C198  1  0.09980000  0.31807000  0.36867000  1
  C  C199  1  0.10195000  0.34303000  0.40509000  1
  C  C200  1  0.17415000  0.29763000  0.30605000  1
  C  C201  1  0.09682000  0.38182000  0.56623000  1
  C  C202  1  0.08888000  0.33433000  0.57170000  1
  C  C203  1  0.04780000  0.31105000  0.60645000  1
  C  C204  1  0.01468000  0.33491000  0.63718000  1
  C  C205  1  0.02359000  0.38239000  0.63252000  1
  C  C206  1  0.06344000  0.40539000  0.59737000  1
  C  C207  1  0.96784000  0.31011000  0.67346000  1
  C  C208  1  0.75725000  0.02528000  0.47838000  1
  C  C209  1  0.78988000  0.05279000  0.44387000  1
  C  C210  1  0.80479000  0.10113000  0.44550000  1
  C  C211  1  0.78781000  0.12150000  0.48277000  1
  C  C212  1  0.75463000  0.09469000  0.51752000  1
  C  C213  1  0.73861000  0.04663000  0.51472000  1
  C  C214  1  0.83635000  0.13030000  0.40912000  1
  C  C215  1  0.80534000  0.16950000  0.40115000  1
  C  C216  1  0.83147000  0.19649000  0.36633000  1
  C  C217  1  0.89047000  0.18544000  0.33773000  1
  C  C218  1  0.92367000  0.14699000  0.34601000  1
  C  C219  1  0.89690000  0.12014000  0.38098000  1
  C  C220  1  0.91183000  0.21249000  0.30021000  1
  C  C221  1  0.73850000  0.11637000  0.55677000  1
  C  C222  1  0.66521000  0.09637000  0.58148000  1
  C  C223  1  0.65156000  0.11630000  0.61895000  1
  C  C224  1  0.71119000  0.15675000  0.63290000  1
  C  C225  1  0.78452000  0.17697000  0.60837000  1
  C  C226  1  0.79755000  0.15707000  0.57083000  1
  C  C227  1  0.69754000  0.17835000  0.67257000  1
  C  C228  1  0.27293000  0.52501000  0.49465000  1
  C  C229  1  0.27514000  0.55091000  0.45829000  1
  C  C230  1  0.32066000  0.59760000  0.45639000  1
  C  C231  1  0.36347000  0.61867000  0.49214000  1
  C  C232  1  0.36034000  0.59413000  0.52943000  1
  C  C233  1  0.31517000  0.54716000  0.53014000  1
  C  C234  1  0.32289000  0.62374000  0.41743000  1
  C  C235  1  0.24913000  0.61551000  0.39139000  1
  C  C236  1  0.25070000  0.64010000  0.35478000  1
  C  C237  1  0.32641000  0.67378000  0.34317000  1
  C  C238  1  0.40064000  0.68206000  0.36879000  1
  C  C239  1  0.39861000  0.65735000  0.40536000  1
  C  C240  1  0.32629000  0.70224000  0.30601000  1
  C  C241  1  0.40346000  0.61764000  0.56711000  1
  C  C242  1  0.41142000  0.66500000  0.57341000  1
  C  C243  1  0.45221000  0.68755000  0.60853000  1
  C  C244  1  0.48539000  0.66316000  0.63883000  1
  C  C245  1  0.47711000  0.61588000  0.63323000  1
  C  C246  1  0.43731000  0.59361000  0.59774000  1
  C  C247  1  0.53198000  0.68766000  0.67529000  1
  C  C248  1  0.74310000  0.97451000  0.47834000  1
  C  C249  1  0.71062000  0.94706000  0.44377000  1
  C  C250  1  0.69564000  0.89874000  0.44537000  1
  C  C251  1  0.71229000  0.87826000  0.48263000  1
  C  C252  1  0.74517000  0.90499000  0.51746000  1
  C  C253  1  0.76134000  0.95306000  0.51470000  1
  C  C254  1  0.66372000  0.86954000  0.40903000  1
  C  C255  1  0.69419000  0.83015000  0.40117000  1
  C  C256  1  0.66772000  0.80317000  0.36637000  1
  C  C257  1  0.60906000  0.81447000  0.33777000  1
  C  C258  1  0.57623000  0.85301000  0.34598000  1
  C  C259  1  0.60326000  0.87989000  0.38093000  1
  C  C260  1  0.58807000  0.78757000  0.30007000  1
  C  C261  1  0.76122000  0.88330000  0.55672000  1
  C  C262  1  0.83466000  0.90327000  0.58136000  1
  C  C263  1  0.84828000  0.88350000  0.61891000  1
  C  C264  1  0.78842000  0.84321000  0.63296000  1
  C  C265  1  0.71492000  0.82303000  0.60855000  1
  C  C266  1  0.70189000  0.84279000  0.57095000  1
  C  C267  1  0.80206000  0.82166000  0.67258000  1
  C  C268  1  0.24743000  0.47500000  0.00594000  1
  C  C269  1  0.22383000  0.44925000  0.04238000  1
  C  C270  1  0.22253000  0.40242000  0.04432000  1
  C  C271  1  0.24397000  0.38111000  0.00857000  1
  C  C272  1  0.26538000  0.40550000  0.97122000  1
  C  C273  1  0.26740000  0.45260000  0.97049000  1
  C  C274  1  0.19895000  0.37618000  0.08322000  1
  C  C275  1  0.13341000  0.38432000  0.10939000  1
  C  C276  1  0.11034000  0.35928000  0.14575000  1
  C  C277  1  0.15254000  0.32528000  0.15700000  1
  C  C278  1  0.21854000  0.31712000  0.13127000  1
  C  C279  1  0.24119000  0.34225000  0.09495000  1
  C  C280  1  0.12452000  0.29639000  0.19388000  1
  C  C281  1  0.28466000  0.38161000  0.93361000  1
  C  C282  1  0.24496000  0.33430000  0.92753000  1
  C  C283  1  0.26342000  0.31117000  0.89274000  1
  C  C284  1  0.32114000  0.33500000  0.86239000  1
  C  C285  1  0.35988000  0.38231000  0.86759000  1
  C  C286  1  0.34245000  0.40511000  0.90285000  1
  C  C287  1  0.34334000  0.31022000  0.82602000  1
  C  C288  1  0.26795000  0.02517000  0.02104000  1
  C  C289  1  0.26326000  0.05272000  0.05565000  1
  C  C290  1  0.29679000  0.10102000  0.05417000  1
  C  C291  1  0.33378000  0.12133000  0.01688000  1
  C  C292  1  0.33968000  0.09450000  0.98201000  1
  C  C293  1  0.30760000  0.04646000  0.98469000  1
  C  C294  1  0.29467000  0.13018000  0.09069000  1
  C  C295  1  0.36458000  0.16925000  0.09862000  1
  C  C296  1  0.36558000  0.19615000  0.13358000  1
  C  C297  1  0.29603000  0.18523000  0.16234000  1
  C  C298  1  0.22479000  0.14686000  0.15416000  1
  C  C299  1  0.22453000  0.12005000  0.11908000  1
  C  C300  1  0.30193000  0.21236000  0.19994000  1
  C  C301  1  0.37758000  0.11605000  0.94279000  1
  C  C302  1  0.43071000  0.09557000  0.91824000  1
  C  C303  1  0.46465000  0.11523000  0.88081000  1
  C  C304  1  0.44606000  0.15593000  0.86678000  1
  C  C305  1  0.39307000  0.17666000  0.89107000  1
  C  C306  1  0.35966000  0.15696000  0.92856000  1
  C  C307  1  0.48205000  0.17719000  0.82725000  1
  C  C308  1  0.25142000  0.52489000  0.00585000  1
  C  C309  1  0.27568000  0.55082000  0.04214000  1
  C  C310  1  0.27730000  0.59769000  0.04397000  1
  C  C311  1  0.25566000  0.61886000  0.00817000  1
  C  C312  1  0.23369000  0.59429000  0.97095000  1
  C  C313  1  0.23102000  0.54712000  0.97039000  1
  C  C314  1  0.30120000  0.62397000  0.08284000  1
  C  C315  1  0.36670000  0.61574000  0.10901000  1
  C  C316  1  0.38963000  0.64061000  0.14549000  1
  C  C317  1  0.34737000  0.67454000  0.15692000  1
  C  C318  1  0.28150000  0.68280000  0.13113000  1
  C  C319  1  0.25900000  0.65788000  0.09468000  1
  C  C320  1  0.37543000  0.70340000  0.19384000  1
  C  C321  1  0.21472000  0.61808000  0.93322000  1
  C  C322  1  0.25471000  0.66533000  0.92709000  1
  C  C323  1  0.23641000  0.68841000  0.89225000  1
  C  C324  1  0.17864000  0.66461000  0.86190000  1
  C  C325  1  0.13967000  0.61733000  0.86712000  1
  C  C326  1  0.15690000  0.59458000  0.90246000  1
  C  C327  1  0.15651000  0.68963000  0.82569000  1
  C  C328  1  0.23124000  0.97445000  0.02104000  1
  C  C329  1  0.23599000  0.94691000  0.05565000  1
  C  C330  1  0.20251000  0.89862000  0.05414000  1
  C  C331  1  0.16567000  0.87828000  0.01682000  1
  C  C332  1  0.15968000  0.90513000  0.98195000  1
  C  C333  1  0.19163000  0.95316000  0.98468000  1
  C  C334  1  0.20452000  0.86954000  0.09077000  1
  C  C335  1  0.13412000  0.83083000  0.09901000  1
  C  C336  1  0.13279000  0.80415000  0.13417000  1
  C  C337  1  0.20263000  0.81501000  0.16278000  1
  C  C338  1  0.27448000  0.85286000  0.15421000  1
  C  C339  1  0.27496000  0.87950000  0.11899000  1
  C  C340  1  0.19673000  0.78855000  0.20082000  1
  C  C341  1  0.12183000  0.88365000  0.94266000  1
  C  C342  1  0.06827000  0.90398000  0.91820000  1
  C  C343  1  0.03426000  0.88427000  0.88078000  1
  C  C344  1  0.05327000  0.84368000  0.86672000  1
  C  C345  1  0.10698000  0.82321000  0.89081000  1
  C  C346  1  0.14043000  0.84296000  0.92828000  1
  C  C347  1  0.01718000  0.82227000  0.82728000  1
  C  C348  1  0.77247000  0.52496000  0.50623000  1
  C  C349  1  0.77443000  0.55085000  0.54261000  1
  C  C350  1  0.82021000  0.59752000  0.54458000  1
  C  C351  1  0.86316000  0.61856000  0.50888000  1
  C  C352  1  0.85995000  0.59413000  0.47154000  1
  C  C353  1  0.81499000  0.54713000  0.47080000  1
  C  C354  1  0.82276000  0.62391000  0.58343000  1
  C  C355  1  0.74908000  0.61618000  0.60947000  1
  C  C356  1  0.75097000  0.64126000  0.64584000  1
  C  C357  1  0.82698000  0.67496000  0.65716000  1
  C  C358  1  0.90105000  0.68271000  0.63153000  1
  C  C359  1  0.89876000  0.65749000  0.59525000  1
  C  C360  1  0.82761000  0.70400000  0.69403000  1
  C  C361  1  0.90273000  0.61800000  0.43394000  1
  C  C362  1  0.91097000  0.66551000  0.42832000  1
  C  C363  1  0.95240000  0.68869000  0.39362000  1
  C  C364  1  0.98567000  0.66478000  0.36300000  1
  C  C365  1  0.97661000  0.61728000  0.36777000  1
  C  C366  1  0.93626000  0.59435000  0.40288000  1
  C  C367  1  0.03228000  0.68967000  0.32673000  1
  C  C368  1  0.24249000  0.97465000  0.52111000  1
  C  C369  1  0.21016000  0.94723000  0.55570000  1
  C  C370  1  0.19519000  0.89889000  0.55417000  1
  C  C371  1  0.21207000  0.87847000  0.51689000  1
  C  C372  1  0.24492000  0.90520000  0.48203000  1
  C  C373  1  0.26074000  0.95326000  0.48471000  1
  C  C374  1  0.16359000  0.86981000  0.59063000  1
  C  C375  1  0.19439000  0.83054000  0.59872000  1
  C  C376  1  0.16818000  0.80365000  0.63361000  1
  C  C377  1  0.10935000  0.81487000  0.66222000  1
  C  C378  1  0.07647000  0.85341000  0.65387000  1
  C  C379  1  0.10329000  0.88020000  0.61884000  1
  C  C380  1  0.08809000  0.78787000  0.69981000  1
  C  C381  1  0.26134000  0.88350000  0.44283000  1
  C  C382  1  0.33476000  0.90364000  0.41824000  1
  C  C383  1  0.34898000  0.88376000  0.38085000  1
  C  C384  1  0.28977000  0.84319000  0.36690000  1
  C  C385  1  0.21633000  0.82278000  0.39126000  1
  C  C386  1  0.20269000  0.84270000  0.42869000  1
  C  C387  1  0.30426000  0.82168000  0.32741000  1
  C  C388  1  0.72658000  0.47517000  0.50617000  1
  C  C389  1  0.72428000  0.44920000  0.54253000  1
  C  C390  1  0.67910000  0.40243000  0.54432000  1
  C  C391  1  0.63676000  0.38139000  0.50844000  1
  C  C392  1  0.63986000  0.40600000  0.47117000  1
  C  C393  1  0.68460000  0.45302000  0.47061000  1
  C  C394  1  0.67702000  0.37606000  0.58319000  1
  C  C395  1  0.75085000  0.38425000  0.60920000  1
  C  C396  1  0.74964000  0.35933000  0.64560000  1
  C  C397  1  0.67421000  0.32531000  0.65705000  1
  C  C398  1  0.59991000  0.31708000  0.63149000  1
  C  C399  1  0.60154000  0.34217000  0.59514000  1
  C  C400  1  0.67503000  0.29664000  0.69404000  1
  C  C401  1  0.59715000  0.38250000  0.43337000  1
  C  C402  1  0.58958000  0.33517000  0.42702000  1
  C  C403  1  0.54899000  0.31256000  0.39187000  1
  C  C404  1  0.51587000  0.33687000  0.36148000  1
  C  C405  1  0.52390000  0.38416000  0.36709000  1
  C  C406  1  0.56332000  0.40647000  0.40265000  1
  C  C407  1  0.46995000  0.31243000  0.32480000  1
  C  C408  1  0.25683000  0.02542000  0.52126000  1
  C  C409  1  0.28928000  0.05270000  0.55595000  1
  C  C410  1  0.30444000  0.10103000  0.55458000  1
  C  C411  1  0.28803000  0.12173000  0.51741000  1
  C  C412  1  0.25531000  0.09516000  0.48246000  1
  C  C413  1  0.23891000  0.04708000  0.48499000  1
  C  C414  1  0.33605000  0.13001000  0.59111000  1
  C  C415  1  0.30511000  0.16921000  0.59914000  1
  C  C416  1  0.33173000  0.19625000  0.63390000  1
  C  C417  1  0.39092000  0.18516000  0.66234000  1
  C  C418  1  0.42393000  0.14668000  0.65407000  1
  C  C419  1  0.39676000  0.11976000  0.61914000  1
  C  C420  1  0.41216000  0.21229000  0.69990000  1
  C  C421  1  0.23995000  0.11700000  0.44321000  1
  C  C422  1  0.16683000  0.09712000  0.41832000  1
  C  C423  1  0.15368000  0.11717000  0.38086000  1
  C  C424  1  0.21390000  0.15755000  0.36724000  1
  C  C425  1  0.28733000  0.17745000  0.39171000  1
  C  C426  1  0.29976000  0.15750000  0.42928000  1
  C  C427  1  0.20047000  0.17964000  0.32794000  1
  C  C428  1  0.75149000  0.52510000  0.99337000  1
  C  C429  1  0.77524000  0.55091000  0.95699000  1
  C  C430  1  0.77696000  0.59778000  0.95522000  1
  C  C431  1  0.75586000  0.61908000  0.99103000  1
  C  C432  1  0.73445000  0.59462000  0.02832000  1
  C  C433  1  0.73190000  0.54747000  0.02892000  1
  C  C434  1  0.80088000  0.62413000  0.91645000  1
  C  C435  1  0.86678000  0.61609000  0.89048000  1
  C  C436  1  0.89007000  0.64116000  0.85417000  1
  C  C437  1  0.84772000  0.67506000  0.84284000  1
  C  C438  1  0.78149000  0.68317000  0.86842000  1
  C  C439  1  0.75857000  0.65799000  0.90467000  1
  C  C440  1  0.87590000  0.70393000  0.80599000  1
  C  C441  1  0.71558000  0.61853000  0.06597000  1
  C  C442  1  0.75552000  0.66582000  0.07201000  1
  C  C443  1  0.73717000  0.68902000  0.10678000  1
  C  C444  1  0.67928000  0.66524000  0.13706000  1
  C  C445  1  0.64046000  0.61792000  0.13194000  1
  C  C446  1  0.65781000  0.59505000  0.09672000  1
  C  C447  1  0.65659000  0.68990000  0.17335000  1
  C  C448  1  0.73191000  0.97486000  0.97952000  1
  C  C449  1  0.73706000  0.94735000  0.94496000  1
  C  C450  1  0.70359000  0.89906000  0.94643000  1
  C  C451  1  0.66641000  0.87872000  0.98370000  1
  C  C452  1  0.66007000  0.90553000  0.01854000  1
  C  C453  1  0.69201000  0.95357000  0.01584000  1
  C  C454  1  0.70572000  0.87000000  0.90985000  1
  C  C455  1  0.63541000  0.83116000  0.90176000  1
  C  C456  1  0.63396000  0.80447000  0.86663000  1
  C  C457  1  0.70362000  0.81537000  0.83789000  1
  C  C458  1  0.77534000  0.85336000  0.84630000  1
  C  C459  1  0.77597000  0.88004000  0.88150000  1
  C  C460  1  0.69728000  0.78856000  0.80011000  1
  C  C461  1  0.62178000  0.88398000  0.05773000  1
  C  C462  1  0.56830000  0.90433000  0.08219000  1
  C  C463  1  0.53361000  0.88448000  0.11946000  1
  C  C464  1  0.55205000  0.84371000  0.13346000  1
  C  C465  1  0.60576000  0.82326000  0.10937000  1
  C  C466  1  0.63969000  0.84311000  0.07203000  1
  C  C467  1  0.51562000  0.82190000  0.17274000  1
  C  C468  1  0.74746000  0.47524000  0.99339000  1
  C  C469  1  0.72324000  0.44920000  0.95715000  1
  C  C470  1  0.72205000  0.40238000  0.95542000  1
  C  C471  1  0.74389000  0.38134000  0.99124000  1
  C  C472  1  0.76584000  0.40606000  0.02837000  1
  C  C473  1  0.76812000  0.45316000  0.02887000  1
  C  C474  1  0.69829000  0.37594000  0.91664000  1
  C  C475  1  0.63273000  0.38404000  0.89042000  1
  C  C476  1  0.60984000  0.35902000  0.85405000  1
  C  C477  1  0.65218000  0.32506000  0.84282000  1
  C  C478  1  0.71812000  0.31692000  0.86862000  1
  C  C479  1  0.74060000  0.34202000  0.90496000  1
  C  C480  1  0.62414000  0.29614000  0.80602000  1
  C  C481  1  0.78567000  0.38259000  0.06607000  1
  C  C482  1  0.74581000  0.33544000  0.07267000  1
  C  C483  1  0.76510000  0.31273000  0.10753000  1
  C  C484  1  0.82399000  0.33686000  0.13730000  1
  C  C485  1  0.86275000  0.38407000  0.13162000  1
  C  C486  1  0.84432000  0.40645000  0.09633000  1
  C  C487  1  0.84731000  0.31231000  0.17350000  1
  C  C488  1  0.76842000  0.02558000  0.97943000  1
  C  C489  1  0.76358000  0.05305000  0.94478000  1
  C  C490  1  0.79713000  0.10133000  0.94622000  1
  C  C491  1  0.83412000  0.12175000  0.98349000  1
  C  C492  1  0.84016000  0.09498000  0.01839000  1
  C  C493  1  0.80811000  0.04696000  0.01574000  1
  C  C494  1  0.79519000  0.13040000  0.90958000  1
  C  C495  1  0.86547000  0.16925000  0.90152000  1
  C  C496  1  0.86645000  0.19620000  0.86655000  1
  C  C497  1  0.79663000  0.18540000  0.83790000  1
  C  C498  1  0.72524000  0.14718000  0.84618000  1
  C  C499  1  0.72485000  0.12034000  0.88128000  1
  C  C500  1  0.80235000  0.21240000  0.80016000  1
  C  C501  1  0.87809000  0.11654000  0.05763000  1
  C  C502  1  0.93178000  0.09629000  0.08206000  1
  C  C503  1  0.96600000  0.11609000  0.11943000  1
  C  C504  1  0.94704000  0.15668000  0.13348000  1
  C  C505  1  0.89316000  0.17705000  0.10941000  1
  C  C506  1  0.85951000  0.15722000  0.07200000  1
  C  C507  1  0.98339000  0.17834000  0.17285000  1
  O  O508  1  0.10711000  0.26486000  0.29786000  1
  O  O509  1  0.24385000  0.30561000  0.28332000  1
  O  O510  1  0.94939000  0.26562000  0.67517000  1
  O  O511  1  0.94124000  0.33277000  0.70233000  1
  O  O512  1  0.95930000  0.20098000  0.27061000  1
  O  O513  1  0.88102000  0.24789000  0.29357000  1
  O  O514  1  0.75341000  0.21612000  0.68298000  1
  O  O515  1  0.63149000  0.16052000  0.69552000  1
  O  O516  1  0.39356000  0.73486000  0.29779000  1
  O  O517  1  0.25644000  0.69448000  0.28340000  1
  O  O518  1  0.54838000  0.73215000  0.67720000  1
  O  O519  1  0.56055000  0.66540000  0.70387000  1
  O  O520  1  0.54114000  0.79928000  0.27039000  1
  O  O521  1  0.61899000  0.75227000  0.29345000  1
  O  O522  1  0.74600000  0.78399000  0.68312000  1
  O  O523  1  0.86844000  0.83947000  0.69535000  1
  O  O524  1  0.15970000  0.26374000  0.20200000  1
  O  O525  1  0.06235000  0.30383000  0.21672000  1
  O  O526  1  0.31920000  0.26565000  0.82490000  1
  O  O527  1  0.39054000  0.33271000  0.79652000  1
  O  O528  1  0.24334000  0.20112000  0.22956000  1
  O  O529  1  0.36819000  0.24756000  0.20638000  1
  O  O530  1  0.46565000  0.21556000  0.81684000  1
  O  O531  1  0.52955000  0.15857000  0.80442000  1
  O  O532  1  0.33982000  0.73590000  0.20204000  1
  O  O533  1  0.43815000  0.69630000  0.21652000  1
  O  O534  1  0.18066000  0.73422000  0.82486000  1
  O  O535  1  0.10928000  0.66734000  0.79609000  1
  O  O536  1  0.25674000  0.79924000  0.22981000  1
  O  O537  1  0.12926000  0.75444000  0.20829000  1
  O  O538  1  0.03380000  0.78397000  0.81686000  1
  O  O539  1  0.96957000  0.84087000  0.80447000  1
  O  O540  1  0.89494000  0.73665000  0.70206000  1
  O  O541  1  0.75812000  0.69645000  0.71680000  1
  O  O542  1  0.05095000  0.73421000  0.32509000  1
  O  O543  1  0.05841000  0.66710000  0.29764000  1
  O  O544  1  0.04114000  0.79943000  0.72960000  1
  O  O545  1  0.11880000  0.75239000  0.70635000  1
  O  O546  1  0.24961000  0.78344000  0.31697000  1
  O  O547  1  0.36999000  0.83991000  0.30448000  1
  O  O548  1  0.60873000  0.26340000  0.70214000  1
  O  O549  1  0.74495000  0.30508000  0.71663000  1
  O  O550  1  0.45183000  0.26793000  0.32293000  1
  O  O551  1  0.44348000  0.33502000  0.29582000  1
  O  O552  1  0.45910000  0.20074000  0.72963000  1
  O  O553  1  0.38124000  0.24764000  0.70639000  1
  O  O554  1  0.25792000  0.21654000  0.31690000  1
  O  O555  1  0.13246000  0.16274000  0.30599000  1
  O  O556  1  0.84072000  0.73659000  0.79794000  1
  O  O557  1  0.93812000  0.69639000  0.78327000  1
  O  O558  1  0.68116000  0.73444000  0.17507000  1
  O  O559  1  0.60832000  0.66709000  0.20231000  1
  O  O560  1  0.75647000  0.79916000  0.77062000  1
  O  O561  1  0.62998000  0.75410000  0.79335000  1
  O  O562  1  0.53351000  0.78387000  0.18313000  1
  O  O563  1  0.46661000  0.83965000  0.19541000  1
  O  O564  1  0.65929000  0.26343000  0.79796000  1
  O  O565  1  0.56176000  0.30353000  0.78327000  1
  O  O566  1  0.82105000  0.26779000  0.17521000  1
  O  O567  1  0.89708000  0.33475000  0.20216000  1
  O  O568  1  0.74398000  0.20077000  0.77044000  1
  O  O569  1  0.86817000  0.24765000  0.79358000  1
  O  O570  1  0.96594000  0.21645000  0.18320000  1
  O  O571  1  0.03184000  0.16033000  0.19559000  1
