# generated using pymatgen
data_Tb2Zn19H54C54N72(Cl2O9)4
_symmetry_space_group_name_H-M   'P 1'
_cell_length_a   18.31939839
_cell_length_b   18.37412000
_cell_length_c   24.49615000
_cell_angle_alpha   90.00327000
_cell_angle_beta   90.00161599
_cell_angle_gamma   119.88551150
_symmetry_Int_Tables_number   1
_chemical_formula_structural   Tb2Zn19H54C54N72(Cl2O9)4
_chemical_formula_sum   'Tb4 Zn38 H108 C108 N144 Cl16 O72'
_cell_volume   7149.01309074
_cell_formula_units_Z   2
loop_
 _symmetry_equiv_pos_site_id
 _symmetry_equiv_pos_as_xyz
  1  'x, y, z'
loop_
 _atom_site_type_symbol
 _atom_site_label
 _atom_site_symmetry_multiplicity
 _atom_site_fract_x
 _atom_site_fract_y
 _atom_site_fract_z
 _atom_site_occupancy
  Tb  Tb0  1  0.99868000  0.99890000  0.86943000  1
  Tb  Tb1  1  0.99858000  0.99718000  0.36588000  1
  Tb  Tb2  1  0.00003000  0.00002000  0.62467000  1
  Tb  Tb3  1  0.00101000  0.99811000  0.12949000  1
  Zn  Zn4  1  0.21045000  0.21043000  0.85841000  1
  Zn  Zn5  1  0.33436000  0.33448000  0.09031000  1
  Zn  Zn6  1  0.00021000  0.78934000  0.85824000  1
  Zn  Zn7  1  0.99991000  0.66540000  0.09029000  1
  Zn  Zn8  1  0.78931000  0.00025000  0.85826000  1
  Zn  Zn9  1  0.66564000  0.00003000  0.09035000  1
  Zn  Zn10  1  0.78836000  0.78857000  0.35834000  1
  Zn  Zn11  1  0.66576000  0.66568000  0.59045000  1
  Zn  Zn12  1  0.00032000  0.21068000  0.35848000  1
  Zn  Zn13  1  0.00010000  0.33415000  0.59035000  1
  Zn  Zn14  1  0.21088000  0.00046000  0.35844000  1
  Zn  Zn15  1  0.33434000  0.00004000  0.59048000  1
  Zn  Zn16  1  0.78949000  0.99999000  0.64168000  1
  Zn  Zn17  1  0.66559000  0.00009000  0.40974000  1
  Zn  Zn18  1  0.99999000  0.78944000  0.64160000  1
  Zn  Zn19  1  0.99996000  0.66530000  0.40992000  1
  Zn  Zn20  1  0.21064000  0.21065000  0.64163000  1
  Zn  Zn21  1  0.33409000  0.33419000  0.40978000  1
  Zn  Zn22  1  0.21107000  0.00016000  0.14168000  1
  Zn  Zn23  1  0.33434000  0.00007000  0.90957000  1
  Zn  Zn24  1  0.99989000  0.21058000  0.14160000  1
  Zn  Zn25  1  0.00012000  0.33437000  0.90956000  1
  Zn  Zn26  1  0.78919000  0.78944000  0.14146000  1
  Zn  Zn27  1  0.66548000  0.66540000  0.90971000  1
  Zn  Zn28  1  0.49984000  0.49987000  0.00000000  1
  Zn  Zn29  1  0.00002000  0.50041000  0.99965000  1
  Zn  Zn30  1  0.49997000  0.00002000  0.99998000  1
  Zn  Zn31  1  0.49934000  0.49935000  0.50035000  1
  Zn  Zn32  1  0.00001000  0.49995000  0.50015000  1
  Zn  Zn33  1  0.50026000  0.00000000  0.50010000  1
  Zn  Zn34  1  0.33365000  0.66683000  0.11232000  1
  Zn  Zn35  1  0.66637000  0.33313000  0.61233000  1
  Zn  Zn36  1  0.66666667  0.33312667  0.38759000  1
  Zn  Zn37  1  0.33326000  0.66686000  0.88764000  1
  Zn  Zn38  1  0.66639000  0.33310000  0.88765000  1
  Zn  Zn39  1  0.33363000  0.66680000  0.38771000  1
  Zn  Zn40  1  0.33328000  0.66687000  0.61235000  1
  Zn  Zn41  1  0.66679000  0.33314000  0.11236000  1
  H  H42  1  0.47053000  0.65208000  0.05176000  1
  H  H43  1  0.22732000  0.39319000  0.15394000  1
  H  H44  1  0.22887000  0.48721000  0.16557000  1
  H  H45  1  0.18170000  0.52944000  0.05179000  1
  H  H46  1  0.16579000  0.77278000  0.15396000  1
  H  H47  1  0.25835000  0.77107000  0.16552000  1
  H  H48  1  0.34753000  0.81837000  0.05165000  1
  H  H49  1  0.60705000  0.83419000  0.15399000  1
  H  H50  1  0.51282000  0.74178000  0.16549000  1
  H  H51  1  0.52950000  0.34790000  0.55178000  1
  H  H52  1  0.77266000  0.60678000  0.65398000  1
  H  H53  1  0.77107000  0.51272000  0.66555000  1
  H  H54  1  0.81826000  0.47058000  0.55180000  1
  H  H55  1  0.83431000  0.22732000  0.65394000  1
  H  H56  1  0.74167000  0.22899000  0.66550000  1
  H  H57  1  0.65249000  0.18167000  0.55171000  1
  H  H58  1  0.39293000  0.16584000  0.65404000  1
  H  H59  1  0.48716000  0.25820000  0.66550000  1
  H  H60  1  0.52922000  0.18181000  0.44826000  1
  H  H61  1  0.77283000  0.16581000  0.34597000  1
  H  H62  1  0.77103000  0.25816000  0.33450000  1
  H  H63  1  0.81846000  0.34789000  0.44826000  1
  H  H64  1  0.83413000  0.60670000  0.34597000  1
  H  H65  1  0.74165000  0.51281000  0.33442000  1
  H  H66  1  0.65238000  0.47055000  0.44824000  1
  H  H67  1  0.39301000  0.22732000  0.34608000  1
  H  H68  1  0.48735000  0.22899000  0.33452000  1
  H  H69  1  0.47079000  0.81826000  0.94829000  1
  H  H70  1  0.22712000  0.83419000  0.84600000  1
  H  H71  1  0.22900000  0.74177000  0.83450000  1
  H  H72  1  0.18160000  0.65212000  0.94821000  1
  H  H73  1  0.16588000  0.39319000  0.84606000  1
  H  H74  1  0.25839000  0.48728000  0.83443000  1
  H  H75  1  0.34769000  0.52940000  0.94821000  1
  H  H76  1  0.60695000  0.77270000  0.84600000  1
  H  H77  1  0.51266000  0.77102000  0.83448000  1
  H  H78  1  0.52947000  0.34789000  0.94818000  1
  H  H79  1  0.77266000  0.60679000  0.84605000  1
  H  H80  1  0.77110000  0.51277000  0.83442000  1
  H  H81  1  0.81822000  0.47056000  0.94819000  1
  H  H82  1  0.83429000  0.22729000  0.84604000  1
  H  H83  1  0.74162000  0.22903000  0.83449000  1
  H  H84  1  0.65253000  0.18170000  0.94831000  1
  H  H85  1  0.39295000  0.16580000  0.84602000  1
  H  H86  1  0.48719000  0.25820000  0.83449000  1
  H  H87  1  0.47052000  0.65211000  0.44825000  1
  H  H88  1  0.22732000  0.39317000  0.34612000  1
  H  H89  1  0.22888000  0.48722000  0.33441000  1
  H  H90  1  0.18171000  0.52941000  0.44823000  1
  H  H91  1  0.16570000  0.77266000  0.34604000  1
  H  H92  1  0.25837000  0.77100000  0.33448000  1
  H  H93  1  0.34757000  0.81831000  0.44831000  1
  H  H94  1  0.60698000  0.83421000  0.34593000  1
  H  H95  1  0.51277000  0.74180000  0.33448000  1
  H  H96  1  0.47079000  0.81834000  0.55169000  1
  H  H97  1  0.22714000  0.83416000  0.65411000  1
  H  H98  1  0.22902000  0.74180000  0.66552000  1
  H  H99  1  0.18155000  0.65206000  0.55180000  1
  H  H100  1  0.16588000  0.39318000  0.65393000  1
  H  H101  1  0.25833000  0.48717000  0.66559000  1
  H  H102  1  0.34770000  0.52942000  0.55178000  1
  H  H103  1  0.60702000  0.77271000  0.65392000  1
  H  H104  1  0.51267000  0.77101000  0.66553000  1
  H  H105  1  0.52924000  0.18170000  0.05172000  1
  H  H106  1  0.77285000  0.16576000  0.15403000  1
  H  H107  1  0.77098000  0.25818000  0.16551000  1
  H  H108  1  0.81843000  0.34794000  0.05178000  1
  H  H109  1  0.83414000  0.60682000  0.15395000  1
  H  H110  1  0.74167000  0.51288000  0.16556000  1
  H  H111  1  0.65231000  0.47055000  0.05183000  1
  H  H112  1  0.39300000  0.22729000  0.15391000  1
  H  H113  1  0.48731000  0.22900000  0.16552000  1
  H  H114  1  0.21038000  0.21037000  0.98603000  1
  H  H115  1  0.45342000  0.45343000  0.87406000  1
  H  H116  1  0.37358000  0.37359000  0.83532000  1
  H  H117  1  0.00002000  0.78962000  0.98610000  1
  H  H118  1  0.00002000  0.54660000  0.87407000  1
  H  H119  1  0.99998000  0.62640000  0.83532000  1
  H  H120  1  0.79001000  0.00001000  0.98612000  1
  H  H121  1  0.54631000  0.00001000  0.87403000  1
  H  H122  1  0.62646000  0.00000000  0.83524000  1
  H  H123  1  0.78969000  0.78971000  0.48608000  1
  H  H124  1  0.54666000  0.54666000  0.37410000  1
  H  H125  1  0.62629000  0.62632000  0.33528000  1
  H  H126  1  0.00001000  0.21034000  0.48604000  1
  H  H127  1  0.99996000  0.45335000  0.37409000  1
  H  H128  1  0.99996000  0.37353000  0.33532000  1
  H  H129  1  0.21001000  0.00005000  0.48611000  1
  H  H130  1  0.45373000  0.00003000  0.37405000  1
  H  H131  1  0.37356000  1.00000000  0.33529000  1
  H  H132  1  0.79002000  0.00002000  0.51387000  1
  H  H133  1  0.54632000  0.99999000  0.62592000  1
  H  H134  1  0.62646000  0.99999000  0.66475000  1
  H  H135  1  0.99999000  0.78964000  0.51396000  1
  H  H136  1  0.99994000  0.54660000  0.62593000  1
  H  H137  1  0.99996000  0.62647000  0.66466000  1
  H  H138  1  0.21035000  0.21036000  0.51393000  1
  H  H139  1  0.45340000  0.45338000  0.62590000  1
  H  H140  1  0.37354000  0.37358000  0.66471000  1
  H  H141  1  0.21004000  0.00002000  0.01382000  1
  H  H142  1  0.45369000  0.99993000  0.12593000  1
  H  H143  1  0.37350000  0.99993000  0.16473000  1
  H  H144  1  0.00001000  0.21031000  0.01388000  1
  H  H145  1  0.00004000  0.45334000  0.12579000  1
  H  H146  1  0.99997000  0.37377000  0.16476000  1
  H  H147  1  0.78965000  0.78964000  0.01395000  1
  H  H148  1  0.54659000  0.54661000  0.12592000  1
  H  H149  1  0.62640000  0.62642000  0.16471000  1
  C  C150  1  0.04809000  0.20138000  0.88996000  1
  C  C151  1  0.31833000  0.49454000  0.11253000  1
  C  C152  1  0.42491000  0.59194000  0.06848000  1
  C  C153  1  0.15324000  0.95197000  0.88996000  1
  C  C154  1  0.17615000  0.68161000  0.11251000  1
  C  C155  1  0.16722000  0.57512000  0.06857000  1
  C  C156  1  0.79857000  0.84667000  0.88999000  1
  C  C157  1  0.50558000  0.82388000  0.11253000  1
  C  C158  1  0.40780000  0.83285000  0.06844000  1
  C  C159  1  0.95194000  0.79843000  0.39000000  1
  C  C160  1  0.68166000  0.50546000  0.61250000  1
  C  C161  1  0.57511000  0.40802000  0.56847000  1
  C  C162  1  0.84699000  0.04767000  0.38988000  1
  C  C163  1  0.82389000  0.31841000  0.61250000  1
  C  C164  1  0.83273000  0.42487000  0.56855000  1
  C  C165  1  0.20129000  0.15304000  0.38994000  1
  C  C166  1  0.49442000  0.17614000  0.61253000  1
  C  C167  1  0.59219000  0.16714000  0.56847000  1
  C  C168  1  0.95192000  0.15288000  0.61009000  1
  C  C169  1  0.68168000  0.17616000  0.38748000  1
  C  C170  1  0.57496000  0.16725000  0.43150000  1
  C  C171  1  0.84676000  0.79863000  0.61000000  1
  C  C172  1  0.82379000  0.50540000  0.38747000  1
  C  C173  1  0.83292000  0.40797000  0.43151000  1
  C  C174  1  0.20122000  0.04812000  0.61001000  1
  C  C175  1  0.49454000  0.31844000  0.38750000  1
  C  C176  1  0.59218000  0.42491000  0.43147000  1
  C  C177  1  0.04810000  0.84681000  0.11000000  1
  C  C178  1  0.31829000  0.82383000  0.88748000  1
  C  C179  1  0.42502000  0.83279000  0.93153000  1
  C  C180  1  0.15316000  0.20113000  0.11004000  1
  C  C181  1  0.17625000  0.49457000  0.88746000  1
  C  C182  1  0.16711000  0.59200000  0.93151000  1
  C  C183  1  0.79858000  0.95193000  0.10996000  1
  C  C184  1  0.50549000  0.68162000  0.88748000  1
  C  C185  1  0.40789000  0.57512000  0.93145000  1
  C  C186  1  0.95197000  0.79889000  0.11004000  1
  C  C187  1  0.68167000  0.50543000  0.88747000  1
  C  C188  1  0.57510000  0.40803000  0.93150000  1
  C  C189  1  0.84672000  0.04792000  0.10999000  1
  C  C190  1  0.82387000  0.31836000  0.88751000  1
  C  C191  1  0.83272000  0.42486000  0.93146000  1
  C  C192  1  0.20147000  0.15327000  0.10998000  1
  C  C193  1  0.49445000  0.17616000  0.88746000  1
  C  C194  1  0.59222000  0.16715000  0.93157000  1
  C  C195  1  0.04824000  0.20114000  0.61006000  1
  C  C196  1  0.31835000  0.49457000  0.38747000  1
  C  C197  1  0.42494000  0.59198000  0.43153000  1
  C  C198  1  0.15313000  0.95212000  0.60998000  1
  C  C199  1  0.17614000  0.68163000  0.38749000  1
  C  C200  1  0.16723000  0.57513000  0.43147000  1
  C  C201  1  0.79864000  0.84683000  0.61002000  1
  C  C202  1  0.50557000  0.82384000  0.38746000  1
  C  C203  1  0.40786000  0.83287000  0.43154000  1
  C  C204  1  0.04799000  0.84660000  0.38999000  1
  C  C205  1  0.31826000  0.82384000  0.61252000  1
  C  C206  1  0.42500000  0.83283000  0.56846000  1
  C  C207  1  0.15313000  0.20113000  0.38989000  1
  C  C208  1  0.17625000  0.49456000  0.61254000  1
  C  C209  1  0.16707000  0.59195000  0.56849000  1
  C  C210  1  0.79888000  0.95178000  0.38991000  1
  C  C211  1  0.50553000  0.68164000  0.61251000  1
  C  C212  1  0.40792000  0.57515000  0.56852000  1
  C  C213  1  0.95189000  0.15326000  0.88998000  1
  C  C214  1  0.68175000  0.17613000  0.11254000  1
  C  C215  1  0.57497000  0.16714000  0.06849000  1
  C  C216  1  0.84672000  0.79865000  0.89001000  1
  C  C217  1  0.82381000  0.50547000  0.11254000  1
  C  C218  1  0.83299000  0.40810000  0.06847000  1
  C  C219  1  0.20121000  0.04792000  0.88996000  1
  C  C220  1  0.49452000  0.31838000  0.11250000  1
  C  C221  1  0.59212000  0.42488000  0.06858000  1
  C  C222  1  0.21190000  0.26073000  0.74999000  1
  C  C223  1  0.04862000  0.78785000  0.75003000  1
  C  C224  1  0.73936000  0.95137000  0.75001000  1
  C  C225  1  0.78797000  0.73920000  0.24998000  1
  C  C226  1  0.95144000  0.21225000  0.24996000  1
  C  C227  1  0.26078000  0.04851000  0.24995000  1
  C  C228  1  0.78800000  0.04865000  0.74999000  1
  C  C229  1  0.95120000  0.73909000  0.75003000  1
  C  C230  1  0.26067000  0.21195000  0.74999000  1
  C  C231  1  0.21217000  0.95151000  0.24998000  1
  C  C232  1  0.04866000  0.26082000  0.24996000  1
  C  C233  1  0.73916000  0.78790000  0.24994000  1
  C  C234  1  0.26583000  0.26584000  0.97171000  1
  C  C235  1  0.35773000  0.35774000  0.91828000  1
  C  C236  1  0.99998000  0.73417000  0.97173000  1
  C  C237  1  0.99998000  0.64230000  0.91829000  1
  C  C238  1  0.73438000  0.99998000  0.97174000  1
  C  C239  1  0.64223000  0.00000000  0.91825000  1
  C  C240  1  0.73428000  0.73425000  0.47173000  1
  C  C241  1  0.64235000  0.64231000  0.41830000  1
  C  C242  1  0.99998000  0.26576000  0.47171000  1
  C  C243  1  0.00000000  0.35767000  0.41829000  1
  C  C244  1  0.26563000  0.99999000  0.47177000  1
  C  C245  1  0.35780000  0.99994000  0.41831000  1
  C  C246  1  0.73442000  0.00001000  0.52827000  1
  C  C247  1  0.64225000  0.00001000  0.58174000  1
  C  C248  1  0.99999000  0.73417000  0.52828000  1
  C  C249  1  0.00002000  0.64232000  0.58171000  1
  C  C250  1  0.26582000  0.26581000  0.52829000  1
  C  C251  1  0.35768000  0.35768000  0.58178000  1
  C  C252  1  0.26564000  0.00000000  0.02823000  1
  C  C253  1  0.35781000  1.00000000  0.08173000  1
  C  C254  1  0.00001000  0.26573000  0.02828000  1
  C  C255  1  0.00001000  0.35759000  0.08173000  1
  C  C256  1  0.73420000  0.73418000  0.02827000  1
  C  C257  1  0.64232000  0.64229000  0.08175000  1
  N  N258  1  0.42183000  0.52066000  0.05670000  1
  N  N259  1  0.36156000  0.58016000  0.10382000  1
  N  N260  1  0.35399000  0.45786000  0.08459000  1
  N  N261  1  0.24810000  0.45396000  0.14306000  1
  N  N262  1  0.09890000  0.57843000  0.05685000  1
  N  N263  1  0.21875000  0.63830000  0.10379000  1
  N  N264  1  0.10377000  0.64621000  0.08464000  1
  N  N265  1  0.20576000  0.75176000  0.14299000  1
  N  N266  1  0.47925000  0.90098000  0.05685000  1
  N  N267  1  0.41968000  0.78139000  0.10368000  1
  N  N268  1  0.54240000  0.89607000  0.08478000  1
  N  N269  1  0.54616000  0.79421000  0.14312000  1
  N  N270  1  0.57817000  0.47931000  0.55669000  1
  N  N271  1  0.63848000  0.41983000  0.60380000  1
  N  N272  1  0.64598000  0.54212000  0.58457000  1
  N  N273  1  0.75191000  0.54604000  0.64305000  1
  N  N274  1  0.90108000  0.42157000  0.55683000  1
  N  N275  1  0.78128000  0.36173000  0.60379000  1
  N  N276  1  0.89627000  0.35378000  0.58462000  1
  N  N277  1  0.79427000  0.24828000  0.64298000  1
  N  N278  1  0.52077000  0.09903000  0.55685000  1
  N  N279  1  0.58031000  0.21860000  0.60370000  1
  N  N280  1  0.45761000  0.10394000  0.58476000  1
  N  N281  1  0.45380000  0.20579000  0.64311000  1
  N  N282  1  0.57826000  0.09912000  0.44317000  1
  N  N283  1  0.63828000  0.21864000  0.39627000  1
  N  N284  1  0.64630000  0.10401000  0.41527000  1
  N  N285  1  0.75195000  0.20577000  0.35692000  1
  N  N286  1  0.90111000  0.47924000  0.44330000  1
  N  N287  1  0.78138000  0.41978000  0.39614000  1
  N  N288  1  0.89610000  0.54205000  0.41540000  1
  N  N289  1  0.79411000  0.54603000  0.35695000  1
  N  N290  1  0.52052000  0.42161000  0.44317000  1
  N  N291  1  0.58045000  0.36173000  0.39619000  1
  N  N292  1  0.45759000  0.35387000  0.41539000  1
  N  N293  1  0.45403000  0.24832000  0.35700000  1
  N  N294  1  0.42172000  0.90093000  0.94318000  1
  N  N295  1  0.36171000  0.78137000  0.89631000  1
  N  N296  1  0.35366000  0.89602000  0.91527000  1
  N  N297  1  0.24804000  0.79421000  0.85689000  1
  N  N298  1  0.09892000  0.52078000  0.94329000  1
  N  N299  1  0.21868000  0.58020000  0.89619000  1
  N  N300  1  0.10391000  0.45793000  0.91540000  1
  N  N301  1  0.20587000  0.45399000  0.85689000  1
  N  N302  1  0.47953000  0.57841000  0.94317000  1
  N  N303  1  0.41959000  0.63829000  0.89620000  1
  N  N304  1  0.54248000  0.64620000  0.91537000  1
  N  N305  1  0.54599000  0.75176000  0.85701000  1
  N  N306  1  0.57815000  0.47927000  0.94331000  1
  N  N307  1  0.63846000  0.41981000  0.89617000  1
  N  N308  1  0.64599000  0.54209000  0.91542000  1
  N  N309  1  0.75191000  0.54604000  0.85694000  1
  N  N310  1  0.90107000  0.42159000  0.94319000  1
  N  N311  1  0.78126000  0.36169000  0.89621000  1
  N  N312  1  0.89627000  0.35381000  0.91540000  1
  N  N313  1  0.79424000  0.24826000  0.85700000  1
  N  N314  1  0.52079000  0.09908000  0.94319000  1
  N  N315  1  0.58035000  0.21862000  0.89631000  1
  N  N316  1  0.45765000  0.10398000  0.91526000  1
  N  N317  1  0.45385000  0.20579000  0.85688000  1
  N  N318  1  0.42186000  0.52071000  0.44329000  1
  N  N319  1  0.36157000  0.58020000  0.39619000  1
  N  N320  1  0.35402000  0.45790000  0.41538000  1
  N  N321  1  0.24812000  0.45397000  0.35692000  1
  N  N322  1  0.09888000  0.57840000  0.44317000  1
  N  N323  1  0.21872000  0.63830000  0.39623000  1
  N  N324  1  0.10373000  0.64621000  0.41534000  1
  N  N325  1  0.20578000  0.75175000  0.35700000  1
  N  N326  1  0.47929000  0.90097000  0.44317000  1
  N  N327  1  0.41970000  0.78141000  0.39630000  1
  N  N328  1  0.54241000  0.89601000  0.41523000  1
  N  N329  1  0.54619000  0.79415000  0.35692000  1
  N  N330  1  0.42166000  0.90093000  0.55681000  1
  N  N331  1  0.36172000  0.78140000  0.60369000  1
  N  N332  1  0.35361000  0.89601000  0.58473000  1
  N  N333  1  0.24796000  0.79416000  0.64307000  1
  N  N334  1  0.09892000  0.52070000  0.55669000  1
  N  N335  1  0.21865000  0.58018000  0.60383000  1
  N  N336  1  0.10395000  0.45788000  0.58459000  1
  N  N337  1  0.20586000  0.45394000  0.64310000  1
  N  N338  1  0.47958000  0.57848000  0.55680000  1
  N  N339  1  0.41961000  0.63831000  0.60380000  1
  N  N340  1  0.54253000  0.64626000  0.58461000  1
  N  N341  1  0.54600000  0.75174000  0.64301000  1
  N  N342  1  0.57828000  0.09904000  0.05684000  1
  N  N343  1  0.63830000  0.21860000  0.10372000  1
  N  N344  1  0.64634000  0.10397000  0.08475000  1
  N  N345  1  0.75201000  0.20579000  0.14310000  1
  N  N346  1  0.90113000  0.47933000  0.05666000  1
  N  N347  1  0.78142000  0.41986000  0.10384000  1
  N  N348  1  0.89610000  0.54213000  0.08459000  1
  N  N349  1  0.79418000  0.54609000  0.14309000  1
  N  N350  1  0.52049000  0.42159000  0.05686000  1
  N  N351  1  0.58042000  0.36168000  0.10380000  1
  N  N352  1  0.45757000  0.35382000  0.08462000  1
  N  N353  1  0.45400000  0.24826000  0.14298000  1
  N  N354  1  0.28347000  0.28346000  0.91770000  1
  N  N355  1  0.32369000  0.32372000  0.00364000  1
  N  N356  1  0.38458000  0.38461000  0.96931000  1
  N  N357  1  0.39858000  0.39857000  0.87195000  1
  N  N358  1  0.99999000  0.71657000  0.91773000  1
  N  N359  1  0.99995000  0.67626000  0.00365000  1
  N  N360  1  0.99996000  0.61538000  0.96931000  1
  N  N361  1  0.00001000  0.60146000  0.87197000  1
  N  N362  1  0.71675000  0.99998000  0.91773000  1
  N  N363  1  0.67621000  0.99997000  0.00359000  1
  N  N364  1  0.61516000  0.99999000  0.96925000  1
  N  N365  1  0.60137000  0.00000000  0.87189000  1
  N  N366  1  0.71659000  0.71654000  0.41773000  1
  N  N367  1  0.67638000  0.67637000  0.50359000  1
  N  N368  1  0.61550000  0.61549000  0.46927000  1
  N  N369  1  0.60150000  0.60148000  0.37196000  1
  N  N370  1  0.99992000  0.28335000  0.41772000  1
  N  N371  1  0.00003000  0.32369000  0.50364000  1
  N  N372  1  0.00005000  0.38458000  0.46929000  1
  N  N373  1  0.00007000  0.39856000  0.37196000  1
  N  N374  1  0.28326000  0.99991000  0.41777000  1
  N  N375  1  0.32379000  0.00003000  0.50364000  1
  N  N376  1  0.38488000  0.00001000  0.46931000  1
  N  N377  1  0.39863000  0.99994000  0.37193000  1
  N  N378  1  0.71681000  0.00002000  0.58228000  1
  N  N379  1  0.67625000  0.99998000  0.49640000  1
  N  N380  1  0.61518000  0.99998000  0.53074000  1
  N  N381  1  0.60139000  0.00001000  0.62810000  1
  N  N382  1  0.00004000  0.71660000  0.58225000  1
  N  N383  1  0.99995000  0.67625000  0.49634000  1
  N  N384  1  0.99997000  0.61535000  0.53071000  1
  N  N385  1  0.00010000  0.60153000  0.62804000  1
  N  N386  1  0.28343000  0.28339000  0.58231000  1
  N  N387  1  0.32372000  0.32374000  0.49642000  1
  N  N388  1  0.38455000  0.38457000  0.53077000  1
  N  N389  1  0.39853000  0.39853000  0.62808000  1
  N  N390  1  0.28327000  0.99996000  0.08221000  1
  N  N391  1  0.32383000  0.00002000  0.99636000  1
  N  N392  1  0.38491000  0.00002000  0.03075000  1
  N  N393  1  0.39872000  0.00011000  0.12810000  1
  N  N394  1  0.00001000  0.28333000  0.08228000  1
  N  N395  1  0.00001000  0.32370000  0.99643000  1
  N  N396  1  0.00000000  0.38455000  0.03079000  1
  N  N397  1  0.99997000  0.39849000  0.12806000  1
  N  N398  1  0.71661000  0.71656000  0.08230000  1
  N  N399  1  0.67630000  0.67628000  0.99641000  1
  N  N400  1  0.61544000  0.61543000  0.03075000  1
  N  N401  1  0.60147000  0.60143000  0.12807000  1
  Cl  Cl402  1  0.33616000  0.33617000  0.18269000  1
  Cl  Cl403  1  0.99994000  0.66383000  0.18267000  1
  Cl  Cl404  1  0.66374000  0.99999000  0.18276000  1
  Cl  Cl405  1  0.66374000  0.66374000  0.68280000  1
  Cl  Cl406  1  0.99995000  0.33620000  0.68268000  1
  Cl  Cl407  1  0.33612000  0.99998000  0.68278000  1
  Cl  Cl408  1  0.66385000  0.99996000  0.31739000  1
  Cl  Cl409  1  0.99989000  0.66405000  0.31747000  1
  Cl  Cl410  1  0.33625000  0.33615000  0.31735000  1
  Cl  Cl411  1  0.33626000  0.00002000  0.81729000  1
  Cl  Cl412  1  0.99997000  0.33614000  0.81720000  1
  Cl  Cl413  1  0.66390000  0.66399000  0.81741000  1
  Cl  Cl414  1  0.99986000  0.99990000  0.75026000  1
  Cl  Cl415  1  0.99989000  0.99906000  0.25109000  1
  Cl  Cl416  1  0.99989000  0.99972000  0.00152000  1
  Cl  Cl417  1  0.99988000  0.99939000  0.50293000  1
  O  O418  1  0.08039000  0.15576000  0.87532000  1
  O  O419  1  0.19632000  0.28092000  0.79627000  1
  O  O420  1  0.08778000  0.27611000  0.90444000  1
  O  O421  1  0.07523000  0.91955000  0.87544000  1
  O  O422  1  0.08456000  0.80356000  0.79617000  1
  O  O423  1  0.18819000  0.91191000  0.90448000  1
  O  O424  1  0.84437000  0.92450000  0.87533000  1
  O  O425  1  0.71934000  0.91568000  0.79629000  1
  O  O426  1  0.72360000  0.81209000  0.90454000  1
  O  O427  1  0.91934000  0.84376000  0.37507000  1
  O  O428  1  0.80377000  0.71929000  0.29627000  1
  O  O429  1  0.91189000  0.72382000  0.40460000  1
  O  O430  1  0.92480000  0.07946000  0.37484000  1
  O  O431  1  0.91550000  0.19629000  0.29619000  1
  O  O432  1  0.81206000  0.08771000  0.40450000  1
  O  O433  1  0.15571000  0.07523000  0.37506000  1
  O  O434  1  0.28089000  0.08434000  0.29613000  1
  O  O435  1  0.27621000  0.18802000  0.40455000  1
  O  O436  1  0.91986000  0.07493000  0.62450000  1
  O  O437  1  0.80364000  0.08423000  0.70368000  1
  O  O438  1  0.91169000  0.18771000  0.59580000  1
  O  O439  1  0.92482000  0.84425000  0.62451000  1
  O  O440  1  0.91551000  0.71911000  0.70372000  1
  O  O441  1  0.81171000  0.72393000  0.59561000  1
  O  O442  1  0.15543000  0.08035000  0.62453000  1
  O  O443  1  0.28074000  0.19626000  0.70367000  1
  O  O444  1  0.27622000  0.08786000  0.59562000  1
  O  O445  1  0.08031000  0.92472000  0.12467000  1
  O  O446  1  0.19632000  0.91562000  0.20378000  1
  O  O447  1  0.08828000  0.81198000  0.09568000  1
  O  O448  1  0.07525000  0.15522000  0.12471000  1
  O  O449  1  0.08465000  0.28090000  0.20380000  1
  O  O450  1  0.18798000  0.27592000  0.09572000  1
  O  O451  1  0.84430000  0.91961000  0.12473000  1
  O  O452  1  0.71932000  0.80377000  0.20363000  1
  O  O453  1  0.72359000  0.91211000  0.09550000  1
  O  O454  1  0.91980000  0.84480000  0.12475000  1
  O  O455  1  0.80384000  0.71926000  0.20369000  1
  O  O456  1  0.91181000  0.72417000  0.09586000  1
  O  O457  1  0.92462000  0.07995000  0.12471000  1
  O  O458  1  0.91534000  0.19630000  0.20383000  1
  O  O459  1  0.81147000  0.08775000  0.09554000  1
  O  O460  1  0.15590000  0.07538000  0.12464000  1
  O  O461  1  0.28063000  0.08425000  0.20369000  1
  O  O462  1  0.27651000  0.18819000  0.09561000  1
  O  O463  1  0.08065000  0.15551000  0.62455000  1
  O  O464  1  0.19632000  0.28087000  0.70368000  1
  O  O465  1  0.08792000  0.27588000  0.59574000  1
  O  O466  1  0.07497000  0.91990000  0.62446000  1
  O  O467  1  0.08441000  0.80374000  0.70373000  1
  O  O468  1  0.18819000  0.91219000  0.59559000  1
  O  O469  1  0.84447000  0.92468000  0.62448000  1
  O  O470  1  0.71935000  0.91573000  0.70372000  1
  O  O471  1  0.72361000  0.81185000  0.59567000  1
  O  O472  1  0.07970000  0.92425000  0.37506000  1
  O  O473  1  0.19627000  0.91571000  0.29618000  1
  O  O474  1  0.08852000  0.81218000  0.40448000  1
  O  O475  1  0.07537000  0.15582000  0.37486000  1
  O  O476  1  0.08441000  0.28085000  0.29621000  1
  O  O477  1  0.18820000  0.27578000  0.40456000  1
  O  O478  1  0.84448000  0.91927000  0.37497000  1
  O  O479  1  0.71899000  0.80365000  0.29618000  1
  O  O480  1  0.72397000  0.91175000  0.40453000  1
  O  O481  1  0.91959000  0.07540000  0.87545000  1
  O  O482  1  0.80359000  0.08434000  0.79626000  1
  O  O483  1  0.91177000  0.18819000  0.90443000  1
  O  O484  1  0.92470000  0.84433000  0.87535000  1
  O  O485  1  0.91529000  0.71884000  0.79616000  1
  O  O486  1  0.81215000  0.72394000  0.90449000  1
  O  O487  1  0.15539000  0.08000000  0.87530000  1
  O  O488  1  0.28085000  0.19629000  0.79627000  1
  O  O489  1  0.27625000  0.08781000  0.90447000  1
