# generated using pymatgen
data_H7C9N2O
_symmetry_space_group_name_H-M   'P 1'
_cell_length_a   9.97740000
_cell_length_b   61.26855000
_cell_length_c   61.26860000
_cell_angle_alpha   120.00008099
_cell_angle_beta   90.00000000
_cell_angle_gamma   90.00000000
_symmetry_Int_Tables_number   1
_chemical_formula_structural   H7C9N2O
_chemical_formula_sum   'H126 C162 N36 O18'
_cell_volume   32435.69589707
_cell_formula_units_Z   18
loop_
 _symmetry_equiv_pos_site_id
 _symmetry_equiv_pos_as_xyz
  1  'x, y, z'
loop_
 _atom_site_type_symbol
 _atom_site_label
 _atom_site_symmetry_multiplicity
 _atom_site_fract_x
 _atom_site_fract_y
 _atom_site_fract_z
 _atom_site_occupancy
  C  1  1  0.10749900  0.97066800  0.49476000  1
  C  2  1  0.00318200  0.98484000  0.49174000  1
  C  3  1  0.90031300  0.97204400  0.47397500  1
  C  5  1  0.22194600  0.98225500  0.51255900  1
  C  28  1  0.99882100  0.93122700  0.46276200  1
  C  29  1  0.10327300  0.94400100  0.48013100  1
  C  30  1  0.89884000  0.94559400  0.45954700  1
  C  43  1  0.00665600  0.86371700  0.43612100  1
  C  45  1  0.97639900  0.82170700  0.42728800  1
  C  47  1  0.98982300  0.83052400  0.39369800  1
  C  49  1  0.99659400  0.82126000  0.36803200  1
  C  50  1  0.02280700  0.88888300  0.45364800  1
  C  51  1  0.96448000  0.80319600  0.43361700  1
  C  55  1  0.00669000  0.56958300  0.13400100  1
  C  57  1  0.97675000  0.60278100  0.17601400  1
  C  59  1  0.98998500  0.56037600  0.16721000  1
  C  61  1  0.99675300  0.54398300  0.17648600  1
  C  62  1  0.02273200  0.56193500  0.10883200  1
  C  63  1  0.96487200  0.62762900  0.19451000  1
  C  67  1  0.00672100  0.56156400  0.42814300  1
  C  69  1  0.97645300  0.57037200  0.39495000  1
  C  71  1  0.99001400  0.60398000  0.43734800  1
  C  73  1  0.99691300  0.62964900  0.45372900  1
  C  74  1  0.02284700  0.54404600  0.43579500  1
  C  75  1  0.96450700  0.56403100  0.37010700  1
  C  79  1  0.00457400  0.13300800  0.55895500  1
  C  81  1  0.98034800  0.17551900  0.56897500  1
  C  83  1  0.99388100  0.16555200  0.60177200  1
  C  85  1  0.00138900  0.17416900  0.62731000  1
  C  86  1  0.01533100  0.10786800  0.54087900  1
  C  87  1  0.96978300  0.19451100  0.56329600  1
  C  91  1  0.00443000  0.42310600  0.86471100  1
  C  93  1  0.98007200  0.39061500  0.82220100  1
  C  95  1  0.99370100  0.43337800  0.83216500  1
  C  97  1  0.00126300  0.45029700  0.82354700  1
  C  98  1  0.01527500  0.43016700  0.88984700  1
  C  99  1  0.96962600  0.36594900  0.80319800  1
  C  103  1  0.00460100  0.43879700  0.57466000  1
  C  105  1  0.98032600  0.42880800  0.60717200  1
  C  107  1  0.99393800  0.39598900  0.56442000  1
  C  109  1  0.00151900  0.37044700  0.54751500  1
  C  110  1  0.01539500  0.45686000  0.56758100  1
  C  111  1  0.96976300  0.43450600  0.63185000  1
  C  115  1  0.99774900  0.01164300  0.50582200  1
  C  116  1  0.06796800  0.02519800  0.49636500  1
  C  117  1  0.06839000  0.05167700  0.50956300  1
  C  118  1  0.99812100  0.06529400  0.53253000  1
  C  119  1  0.92921200  0.05170600  0.54204600  1
  C  120  1  0.92733300  0.02497400  0.52912100  1
  C  124  1  0.85200200  0.01107700  0.53953000  1
  C  131  1  0.99875700  0.52869800  0.06649400  1
  C  132  1  0.10320800  0.53328700  0.05371400  1
  C  133  1  0.10742300  0.52124800  0.02704800  1
  C  134  1  0.00309300  0.50405600  0.01287900  1
  C  135  1  0.90022600  0.49909300  0.02567700  1
  C  136  1  0.89874700  0.51112200  0.05212700  1
  C  139  1  0.99765100  0.49133300  0.98607400  1
  C  140  1  0.06784700  0.46832000  0.97252200  1
  C  141  1  0.06831100  0.45504100  0.94604100  1
  C  142  1  0.99802600  0.46439000  0.93242500  1
  C  143  1  0.92910600  0.48749200  0.94601200  1
  C  144  1  0.92725700  0.50130200  0.97274300  1
  C  149  1  0.22187700  0.52745300  0.01545600  1
  C  150  1  0.85195200  0.52561300  0.98664100  1
  C  161  1  0.99884300  0.53495200  0.46903800  1
  C  162  1  0.10327800  0.51758200  0.46444800  1
  C  163  1  0.10747300  0.50295400  0.47648700  1
  C  164  1  0.00313700  0.50597900  0.49367700  1
  C  165  1  0.90027100  0.52374100  0.49863900  1
  C  166  1  0.89880900  0.53816100  0.48660800  1
  C  169  1  0.99768800  0.49190300  0.50640700  1
  C  170  1  0.06792800  0.50136300  0.52941500  1
  C  171  1  0.06842100  0.48816200  0.54269400  1
  C  172  1  0.99817000  0.46519500  0.53334800  1
  C  173  1  0.92919200  0.45568100  0.51025100  1
  C  174  1  0.92730300  0.46860100  0.49643900  1
  C  179  1  0.22191200  0.48515500  0.47028100  1
  C  180  1  0.85196100  0.45818800  0.47213400  1
  C  191  1  0.95563500  0.78258500  0.32853000  1
  C  192  1  0.86173900  0.76279600  0.31970800  1
  C  193  1  0.87031300  0.74146200  0.29523800  1
  C  194  1  0.97806800  0.74008000  0.27929700  1
  C  195  1  0.06979100  0.76034800  0.28789500  1
  C  196  1  0.05895300  0.78139100  0.31227600  1
  C  199  1  0.00822400  0.71738200  0.25658700  1
  C  200  1  0.93670300  0.71195500  0.23449200  1
  C  201  1  0.94617600  0.68809900  0.21266800  1
  C  202  1  0.02779300  0.66931200  0.21255600  1
  C  203  1  0.10427000  0.67510900  0.23418400  1
  C  204  1  0.09450300  0.69878900  0.25656200  1
  C  209  1  0.76911000  0.72111200  0.28844000  1
  C  210  1  0.17073700  0.70376900  0.27967800  1
  C  221  1  0.95575200  0.54320600  0.21519100  1
  C  222  1  0.86160400  0.55409900  0.23494000  1
  C  223  1  0.87007200  0.55094000  0.25626100  1
  C  224  1  0.97792800  0.53641000  0.25766000  1
  C  225  1  0.06983300  0.52478900  0.23742000  1
  C  226  1  0.05904300  0.52813600  0.21638200  1
  C  229  1  0.00799800  0.53640300  0.28036300  1
  C  230  1  0.93664800  0.51971400  0.28578300  1
  C  231  1  0.94626600  0.52171400  0.30962200  1
  C  232  1  0.02757600  0.54043800  0.32843100  1
  C  233  1  0.10391900  0.55629600  0.32265100  1
  C  234  1  0.09412300  0.55499600  0.29897100  1
  C  239  1  0.76863300  0.56443600  0.27657700  1
  C  240  1  0.17018500  0.57316200  0.29401000  1
  C  251  1  0.95578200  0.66913100  0.45451000  1
  C  252  1  0.86151300  0.67798300  0.44363300  1
  C  253  1  0.86997700  0.70245300  0.44676700  1
  C  254  1  0.97784600  0.71838500  0.46128900  1
  C  255  1  0.06981800  0.70978500  0.47291600  1
  C  256  1  0.05918400  0.68538800  0.46954200  1
  C  259  1  0.00784200  0.74109100  0.46128300  1
  C  260  1  0.93650400  0.76320100  0.47797300  1
  C  261  1  0.94588600  0.78501800  0.47592700  1
  C  262  1  0.02732600  0.78511400  0.45722300  1
  C  263  1  0.10358400  0.76346800  0.44135800  1
  C  264  1  0.09392600  0.74110000  0.44268200  1
  C  269  1  0.76849900  0.70926100  0.43326800  1
  C  270  1  0.17005900  0.71797700  0.42452800  1
  C  281  1  0.95991700  0.21219900  0.66738100  1
  C  282  1  0.86582500  0.23198200  0.67661700  1
  C  283  1  0.87415100  0.25294600  0.70132400  1
  C  284  1  0.98202700  0.25397500  0.71708700  1
  C  285  1  0.07401400  0.23371800  0.70807600  1
  C  286  1  0.06343900  0.21306200  0.68345300  1
  C  289  1  0.01184200  0.27639900  0.74008200  1
  C  290  1  0.93993000  0.28136400  0.76200400  1
  C  291  1  0.94862100  0.30501900  0.78410000  1
  C  292  1  0.02987200  0.32407500  0.78467700  1
  C  293  1  0.10698100  0.31871100  0.76323300  1
  C  294  1  0.09797100  0.29524600  0.74059000  1
  C  299  1  0.77273300  0.27334200  0.70853100  1
  C  300  1  0.17473000  0.29076800  0.71769100  1
  C  311  1  0.95995500  0.45231800  0.78549500  1
  C  312  1  0.86582800  0.44177400  0.76572000  1
  C  313  1  0.87415700  0.44554300  0.74477500  1
  C  314  1  0.98186600  0.46032800  0.74377800  1
  C  315  1  0.07377700  0.47158600  0.76405400  1
  C  316  1  0.06319800  0.46761200  0.78470700  1
  C  319  1  0.01187100  0.46091100  0.72136600  1
  C  320  1  0.93997600  0.47786600  0.71640100  1
  C  321  1  0.94886600  0.47632700  0.69275700  1
  C  322  1  0.03020300  0.45785500  0.67371200  1
  C  323  1  0.10729300  0.44177900  0.67908300  1
  C  324  1  0.09808200  0.44257800  0.70253600  1
  C  329  1  0.77278300  0.43236600  0.72436900  1
  C  330  1  0.17474100  0.42415000  0.70701800  1
  C  341  1  0.96010700  0.33039700  0.54555300  1
  C  342  1  0.86575300  0.32114600  0.55603600  1
  C  343  1  0.87394700  0.29642000  0.55224500  1
  C  344  1  0.98170000  0.28064000  0.53747700  1
  C  345  1  0.07375700  0.28966900  0.52625300  1
  C  346  1  0.06325800  0.31429900  0.53023300  1
  C  349  1  0.01160200  0.25764300  0.53689600  1
  C  350  1  0.93980100  0.23571400  0.51993300  1
  C  351  1  0.94884000  0.21359400  0.52144300  1
  C  352  1  0.02993300  0.21304600  0.53995400  1
  C  353  1  0.10697800  0.23449700  0.55604200  1
  C  354  1  0.09773700  0.25715000  0.55524400  1
  C  359  1  0.77237700  0.28918000  0.56538000  1
  C  360  1  0.17431900  0.28006700  0.57368700  1
  H  4  1  0.82504700  0.98190800  0.47140400  1
  H  6  1  0.91888200  0.99758200  0.54077100  1
  H  8  1  0.22652700  0.97425800  0.52500900  1
  H  9  1  0.41812000  0.98437600  0.51061500  1
  H  31  1  0.82275600  0.93685500  0.44690700  1
  H  32  1  0.17815800  0.93364700  0.48203400  1
  H  52  1  0.91904300  0.78722600  0.42119000  1
  H  53  1  0.05299500  0.89356500  0.47092900  1
  H  54  1  0.04079700  0.83124200  0.36134800  1
  H  64  1  0.91955400  0.63116900  0.21049100  1
  H  65  1  0.05288500  0.57453100  0.10414300  1
  H  66  1  0.04099800  0.52732100  0.16651500  1
  H  76  1  0.91896300  0.57644200  0.36655500  1
  H  77  1  0.05300400  0.52676100  0.42320100  1
  H  78  1  0.04106300  0.63633400  0.47039900  1
  H  88  1  0.92769300  0.21061400  0.57628200  1
  H  89  1  0.03370300  0.10336100  0.52316200  1
  H  90  1  0.04568800  0.16381700  0.63355400  1
  H  100  1  0.92760400  0.36281400  0.78708400  1
  H  101  1  0.03360000  0.41695600  0.89435400  1
  H  102  1  0.04553300  0.46689500  0.83390300  1
  H  112  1  0.92757800  0.42153900  0.63498400  1
  H  113  1  0.03370300  0.47458100  0.58078800  1
  H  114  1  0.04586900  0.36419300  0.53092300  1
  H  121  1  0.12035300  0.01587000  0.47980600  1
  H  122  1  0.12179600  0.06089500  0.50238500  1
  H  123  1  0.87834700  0.06167200  0.55867800  1
  H  126  1  0.77208600  0.00038200  0.52629500  1
  H  127  1  0.85966400  0.03328900  0.57650100  1
  H  128  1  0.21139800  0.00263800  0.52450100  1
  H  137  1  0.82495500  0.48665600  0.01581400  1
  H  138  1  0.82269500  0.50721600  0.06087100  1
  H  145  1  0.12022200  0.46108600  0.98184600  1
  H  146  1  0.12166000  0.43863900  0.93682300  1
  H  147  1  0.87828100  0.49416400  0.93604600  1
  H  148  1  0.17811300  0.54554000  0.06406700  1
  H  152  1  0.91885300  0.54034700  0.00013300  1
  H  153  1  0.77203600  0.52307900  0.99733900  1
  H  154  1  0.85963800  0.54036900  0.96442600  1
  H  156  1  0.21133100  0.51900800  0.99507400  1
  H  157  1  0.22647200  0.54789900  0.02345200  1
  H  158  1  0.41805000  0.52338300  0.01333700  1
  H  167  1  0.82499200  0.52631500  0.51107300  1
  H  168  1  0.82275500  0.55080800  0.49051200  1
  H  175  1  0.12033600  0.51791900  0.53664200  1
  H  176  1  0.12184200  0.49534200  0.55908800  1
  H  177  1  0.87837100  0.43904400  0.50358300  1
  H  178  1  0.17818000  0.51567600  0.45219300  1
  H  182  1  0.91883500  0.45694600  0.45739600  1
  H  183  1  0.77203600  0.47142200  0.47467300  1
  H  184  1  0.85965500  0.42121800  0.45737800  1
  H  186  1  0.21134400  0.47321600  0.47872600  1
  H  187  1  0.22651200  0.47270400  0.44983500  1
  H  188  1  0.41808100  0.48709900  0.47435300  1
  H  197  1  0.15052000  0.75921700  0.27705200  1
  H  198  1  0.13265400  0.79478300  0.31870900  1
  H  205  1  0.87111000  0.72484700  0.23456700  1
  H  206  1  0.88766700  0.68406400  0.19738900  1
  H  207  1  0.16279400  0.66120600  0.23377300  1
  H  208  1  0.78937600  0.76331300  0.33184700  1
  H  212  1  0.10173000  0.71006700  0.29558800  1
  H  213  1  0.24092600  0.71911000  0.28416900  1
  H  214  1  0.18706300  0.67061700  0.27759300  1
  H  216  1  0.78838800  0.70449200  0.27012000  1
  H  217  1  0.77176200  0.71509600  0.30251500  1
  H  218  1  0.57337200  0.71711800  0.28401800  1
  H  227  1  0.15054600  0.51506900  0.23854500  1
  H  228  1  0.13281600  0.52119600  0.20300400  1
  H  235  1  0.87146600  0.50682500  0.27285000  1
  H  236  1  0.88797900  0.51043100  0.31363900  1
  H  237  1  0.16226000  0.56981800  0.33656700  1
  H  238  1  0.78917100  0.56570400  0.23441100  1
  H  242  1  0.10108400  0.58275500  0.28770400  1
  H  243  1  0.24047500  0.56233900  0.27868100  1
  H  244  1  0.18622500  0.60423300  0.32716800  1
  H  246  1  0.78781600  0.56272200  0.29319200  1
  H  247  1  0.77109900  0.58453200  0.28261600  1
  H  248  1  0.57287200  0.56393000  0.28049800  1
  H  257  1  0.15050500  0.72063900  0.48263500  1
  H  258  1  0.13282600  0.67896100  0.47651900  1
  H  265  1  0.87133600  0.76315700  0.49086400  1
  H  266  1  0.88786300  0.80034300  0.48725400  1
  H  267  1  0.16214200  0.76387700  0.42786700  1
  H  268  1  0.78913900  0.66583600  0.43202300  1
  H  272  1  0.10101900  0.70206700  0.41494700  1
  H  273  1  0.24041400  0.71349300  0.43535900  1
  H  274  1  0.18596100  0.72004100  0.39344300  1
  H  276  1  0.78767700  0.72758300  0.43496500  1
  H  277  1  0.77092800  0.69519200  0.41317600  1
  H  278  1  0.57273900  0.71369000  0.43378400  1
  H  287  1  0.15473400  0.23459600  0.71881300  1
  H  288  1  0.13714500  0.19966700  0.67676000  1
  H  295  1  0.87447400  0.26829300  0.76159900  1
  H  296  1  0.88986300  0.30871200  0.79925400  1
  H  297  1  0.16557900  0.33277100  0.76399700  1
  H  298  1  0.79339800  0.23175200  0.66462300  1
  H  302  1  0.10613400  0.28468400  0.70175100  1
  H  303  1  0.24522100  0.27542100  0.71299100  1
  H  304  1  0.19054400  0.32423500  0.72047000  1
  H  306  1  0.79184600  0.28971600  0.72703500  1
  H  307  1  0.77530700  0.27978800  0.69479100  1
  H  308  1  0.57695900  0.27720300  0.71296300  1
  H  317  1  0.15448600  0.48144700  0.76317600  1
  H  318  1  0.13703400  0.47428000  0.79807700  1
  H  325  1  0.87440300  0.49051800  0.72945800  1
  H  326  1  0.88998900  0.48775700  0.68904000  1
  H  327  1  0.16578500  0.42846500  0.66501700  1
  H  328  1  0.79350500  0.42998300  0.76593000  1
  H  332  1  0.10605600  0.41428000  0.71307100  1
  H  333  1  0.24511800  0.43479100  0.72238700  1
  H  334  1  0.19078200  0.39347700  0.67354400  1
  H  336  1  0.79186500  0.43453400  0.70801600  1
  H  337  1  0.77545900  0.41217100  0.71789000  1
  H  338  1  0.57700000  0.43291200  0.72050300  1
  H  347  1  0.15441400  0.27892300  0.51637600  1
  H  348  1  0.13714600  0.32099700  0.52357300  1
  H  355  1  0.87459300  0.23609100  0.50721700  1
  H  356  1  0.89013900  0.19843300  0.50998300  1
  H  357  1  0.16535400  0.23375800  0.56937500  1
  H  358  1  0.79339900  0.33314500  0.56781700  1
  H  362  1  0.10559500  0.29598400  0.58354500  1
  H  363  1  0.24475900  0.28479900  0.56305900  1
  H  364  1  0.19019600  0.27726800  0.60436300  1
  H  366  1  0.79134000  0.27065000  0.56319700  1
  H  367  1  0.77493700  0.30288100  0.58557900  1
  H  368  1  0.57656900  0.28478100  0.56478000  1
  N  44  1  0.99321100  0.84663800  0.44407700  1
  N  46  1  0.97566600  0.81417800  0.40240900  1
  N  48  1  0.00620400  0.85537100  0.41087500  1
  N  56  1  0.99338100  0.59462500  0.15107700  1
  N  58  1  0.97596700  0.58543600  0.18355200  1
  N  60  1  0.00624400  0.55269200  0.14235900  1
  N  68  1  0.99323200  0.55359400  0.40310600  1
  N  70  1  0.97581200  0.59525600  0.41229000  1
  N  72  1  0.00635900  0.58681400  0.44503300  1
  N  80  1  0.99278100  0.15062900  0.55166300  1
  N  82  1  0.98154600  0.18244200  0.59370600  1
  N  84  1  0.00618000  0.14077400  0.58408400  1
  N  92  1  0.99260100  0.39819100  0.84708700  1
  N  94  1  0.98131500  0.40842400  0.81527800  1
  N  96  1  0.00604300  0.44046700  0.85694400  1
  N  104  1  0.99277000  0.44610500  0.59957700  1
  N  106  1  0.98156000  0.40407200  0.58937800  1
  N  108  1  0.00624900  0.41366400  0.55731200  1
  N  129  1  0.99266500  0.90623400  0.44849800  1
  N  130  1  0.99579600  0.09037400  0.54631700  1
  N  159  1  0.99262000  0.53942900  0.09148600  1
  N  160  1  0.99570600  0.45309600  0.90734100  1
  N  189  1  0.99270500  0.54920800  0.45829900  1
  N  190  1  0.99585600  0.45141100  0.54464700  1
  N  219  1  0.95588200  0.79868600  0.35307800  1
  N  220  1  0.02442000  0.64569800  0.19340900  1
  N  249  1  0.95602700  0.55161600  0.19906100  1
  N  250  1  0.02426500  0.54488900  0.35203900  1
  N  279  1  0.95611300  0.64459300  0.44610300  1
  N  280  1  0.02405000  0.80427500  0.45277700  1
  N  309  1  0.96035800  0.19659200  0.64273300  1
  N  310  1  0.02567900  0.34751300  0.80415700  1
  N  339  1  0.96034200  0.44329100  0.80111500  1
  N  340  1  0.02604300  0.45387900  0.65026800  1
  N  369  1  0.96053800  0.35503600  0.55453600  1
  N  370  1  0.02586200  0.19356300  0.54391100  1
  O  7  1  0.34385700  0.97705500  0.49848600  1
  O  125  1  0.78896400  0.02601800  0.56358200  1
  O  151  1  0.78892800  0.53472500  0.97169900  1
  O  155  1  0.34378200  0.51857900  0.02065900  1
  O  181  1  0.78894400  0.43413400  0.46302500  1
  O  185  1  0.34382300  0.49922700  0.47915700  1
  O  211  1  0.24895800  0.68339500  0.27811800  1
  O  215  1  0.63876000  0.73061100  0.28789800  1
  O  241  1  0.24823200  0.59200200  0.31440000  1
  O  245  1  0.63841900  0.55435100  0.26702400  1
  O  271  1  0.24802100  0.71951800  0.40567600  1
  O  275  1  0.63831300  0.70980400  0.44336600  1
  O  301  1  0.25263200  0.31138600  0.71973400  1
  O  305  1  0.64249000  0.26366500  0.70880700  1
  O  331  1  0.25278200  0.40559200  0.68641500  1
  O  335  1  0.64249800  0.44228700  0.73405000  1
  O  361  1  0.25226500  0.27802800  0.59225800  1
  O  365  1  0.64219800  0.28896000  0.55543100  1
