# generated using pymatgen
data_H24C41(NO)8
_symmetry_space_group_name_H-M   'P 1'
_cell_length_a   16.08860000
_cell_length_b   16.08860000
_cell_length_c   47.89770000
_cell_angle_alpha   89.95840000
_cell_angle_beta   89.97920000
_cell_angle_gamma   60.00000000
_symmetry_Int_Tables_number   1
_chemical_formula_structural   H24C41(NO)8
_chemical_formula_sum   'H72 C123 N24 O24'
_cell_volume   10736.96865476
_cell_formula_units_Z   3
loop_
 _symmetry_equiv_pos_site_id
 _symmetry_equiv_pos_as_xyz
  1  'x, y, z'
loop_
 _atom_site_type_symbol
 _atom_site_label
 _atom_site_symmetry_multiplicity
 _atom_site_fract_x
 _atom_site_fract_y
 _atom_site_fract_z
 _atom_site_occupancy
  C  3  1  0.17152800  0.82670250  0.93836400  1
  C  4  1  0.81722900  0.18067500  0.72731700  1
  C  9  1  0.94611000  0.04962650  0.85662500  1
  C  21  1  0.05660800  0.93757100  0.81088400  1
  C  31  1  0.35927300  0.62844900  0.67341200  1
  C  33  1  0.62447600  0.36095700  0.98963800  1
  C  35  1  0.95264700  0.03068400  0.19390900  1
  C  37  1  0.91161800  0.04303700  0.22008200  1
  C  41  1  0.98873600  0.03525800  0.80673400  1
  C  46  1  0.93183400  0.09177900  0.82959400  1
  C  50  1  0.04541200  0.91122500  0.88686500  1
  C  53  1  0.97611100  0.98807300  0.47355500  1
  C  57  1  0.14509100  0.87381750  0.05645000  1
  C  60  1  0.07029800  0.89627550  0.83748200  1
  C  61  1  0.01728800  0.95185750  0.86062400  1
  C  67  1  0.98903600  0.07601250  0.78146300  1
  C  70  1  0.03724400  0.97580400  0.14018400  1
  C  71  1  0.07871400  0.93460600  0.11501200  1
  C  72  1  0.03114400  0.01684050  0.52735900  1
  C  73  1  0.04364600  0.04509800  0.55357200  1
  C  91  1  0.13594800  0.95364500  0.07140400  1
  C  92  1  0.18053200  0.00289100  0.06052100  1
  C  93  1  0.23966000  0.96819050  0.03677000  1
  C  94  1  0.25902400  0.88147050  0.02335600  1
  C  95  1  0.20409400  0.83978000  0.03268900  1
  C  96  1  0.32793100  0.83786550  0.99863900  1
  C  97  1  0.25689200  0.86561200  0.97438200  1
  C  98  1  0.23324800  0.80040600  0.96155100  1
  C  99  1  0.12766200  0.92104300  0.92769400  1
  C  100  1  0.14312100  0.98908100  0.94169100  1
  C  101  1  0.20424200  0.96237200  0.96502500  1
  C  102  1  0.39966500  0.87359700  0.99588200  1
  C  103  1  0.39758300  0.72978950  0.00095000  1
  C  104  1  0.45098300  0.67677750  0.97720600  1
  C  105  1  0.51271900  0.57686900  0.97815200  1
  C  106  1  0.52677200  0.52650750  0.00341800  1
  C  107  1  0.48062200  0.57845100  0.02767600  1
  C  108  1  0.41935900  0.67840250  0.02656100  1
  C  109  1  0.45556700  0.87076000  0.01928100  1
  C  110  1  0.51871100  0.90722000  0.01799300  1
  C  111  1  0.53174500  0.94409500  0.99267800  1
  C  112  1  0.48398300  0.93938650  0.96864600  1
  C  113  1  0.42119500  0.90254750  0.97011800  1
  C  131  1  0.95368900  0.91124300  0.40484800  1
  C  132  1  0.00291200  0.81734550  0.39404400  1
  C  133  1  0.96840100  0.79283350  0.37028100  1
  C  134  1  0.88170200  0.86010750  0.35681700  1
  C  135  1  0.83991000  0.95675050  0.36609700  1
  C  136  1  0.87385900  0.98183300  0.38984600  1
  C  137  1  0.83821500  0.83470300  0.33210200  1
  C  138  1  0.86603600  0.87794150  0.30783100  1
  C  139  1  0.80085100  0.96670100  0.29491800  1
  C  140  1  0.82718400  0.00194900  0.27168500  1
  C  141  1  0.92150800  0.95128400  0.26102500  1
  C  142  1  0.98959000  0.86804600  0.27514100  1
  C  143  1  0.96282400  0.83379900  0.29851100  1
  C  144  1  0.87400100  0.72722700  0.32938500  1
  C  145  1  0.73014900  0.87309700  0.33438400  1
  C  146  1  0.67720500  0.87258300  0.31063900  1
  C  147  1  0.57731400  0.91059400  0.31156200  1
  C  148  1  0.52687300  0.94706600  0.33680100  1
  C  149  1  0.57880100  0.94120500  0.36106800  1
  C  150  1  0.67875000  0.90252700  0.35998400  1
  C  151  1  0.87126700  0.67408600  0.35280000  1
  C  152  1  0.90779900  0.57446800  0.35153500  1
  C  153  1  0.94453700  0.52466900  0.32622000  1
  C  154  1  0.93987500  0.57716200  0.30218000  1
  C  155  1  0.90292800  0.67680150  0.30363100  1
  C  174  1  0.91119300  0.13569350  0.73809600  1
  C  175  1  0.79277300  0.23972350  0.70353700  1
  C  176  1  0.86019200  0.25883900  0.69002300  1
  C  177  1  0.95687000  0.20360200  0.69926300  1
  C  178  1  0.98190400  0.14451950  0.72302000  1
  C  179  1  0.83489900  0.32780300  0.66530100  1
  C  180  1  0.87799300  0.25685450  0.64102700  1
  C  181  1  0.96684700  0.23307650  0.62815100  1
  C  182  1  0.00218400  0.17130600  0.60498500  1
  C  183  1  0.95160800  0.12750050  0.59437900  1
  C  184  1  0.86810300  0.14307950  0.60842200  1
  C  185  1  0.83378700  0.20425650  0.63173600  1
  C  186  1  0.72746500  0.39968150  0.66258300  1
  C  187  1  0.87355600  0.39725250  0.66759400  1
  C  188  1  0.87321400  0.45074100  0.64385800  1
  C  189  1  0.91142400  0.51244900  0.64480100  1
  C  190  1  0.94801300  0.52616800  0.67004100  1
  C  191  1  0.94229300  0.47982350  0.69428600  1
  C  192  1  0.90332700  0.41880900  0.69319200  1
  C  193  1  0.67453600  0.45565050  0.68598900  1
  C  194  1  0.57499400  0.51912100  0.68473000  1
  C  195  1  0.52501300  0.53242700  0.65943500  1
  C  196  1  0.57729300  0.48437300  0.63540400  1
  C  197  1  0.67688400  0.42135100  0.63684300  1
  C  215  1  0.93967200  0.00480800  0.14415900  1
  C  216  1  0.89782300  0.03230150  0.17068700  1
  C  218  1  0.05022400  0.00503900  0.19007400  1
  C  221  1  0.09298500  0.97709900  0.16312900  1
  C  232  1  0.00553900  0.05626600  0.47763100  1
  C  233  1  0.03324200  0.07006650  0.50418700  1
  C  234  1  0.00494000  0.94536850  0.52343900  1
  C  237  1  0.97694400  0.93100750  0.49645200  1
  C  244  1  0.93497200  0.98825750  0.44832600  1
  C  247  1  0.63322200  0.09607400  0.00191500  1
  C  248  1  0.54584800  0.18390600  0.99990500  1
  C  249  1  0.54493600  0.27008350  0.99559400  1
  C  250  1  0.63135100  0.27251450  0.99404200  1
  C  251  1  0.72031100  0.18517900  0.99602200  1
  C  254  1  0.72144400  0.09665750  0.00023700  1
  C  259  1  0.62748800  0.01408150  0.00666200  1
  C  262  1  0.09699700  0.27092200  0.33527100  1
  C  263  1  0.18474800  0.27036200  0.33265100  1
  C  264  1  0.27072600  0.18496800  0.32828900  1
  C  265  1  0.27306200  0.09610750  0.32727500  1
  C  266  1  0.18581000  0.09457100  0.32977800  1
  C  269  1  0.09748800  0.18208850  0.33405600  1
  C  276  1  0.01527100  0.35872850  0.34015200  1
  C  278  1  0.36137000  0.01437700  0.32295900  1
  C  280  1  0.27180600  0.63361400  0.66874800  1
  C  281  1  0.27164600  0.54599950  0.66734500  1
  C  282  1  0.18667600  0.54455550  0.66300900  1
  C  283  1  0.09779800  0.63071300  0.66082500  1
  C  284  1  0.09589900  0.71990800  0.66226600  1
  C  287  1  0.18298600  0.72157950  0.66651000  1
  C  294  1  0.01659200  0.62330450  0.65628000  1
  H  13  1  0.72355300  0.27058700  0.69666400  1
  H  19  1  0.26272400  0.73133750  0.96848000  1
  H  22  1  0.09994400  0.89648750  0.79486800  1
  H  25  1  0.77191500  0.21474100  0.64095600  1
  H  29  1  0.21083700  0.78004000  0.02302600  1
  H  39  1  0.84782700  0.10021450  0.22381500  1
  H  62  1  0.12353800  0.82631700  0.84002200  1
  H  68  1  0.03428000  0.10074600  0.77926300  1
  H  69  1  0.05188900  0.84756800  0.89073600  1
  H  114  1  0.54256300  0.54084050  0.95998200  1
  H  115  1  0.44085500  0.71023400  0.95832200  1
  H  116  1  0.48839000  0.54339950  0.04619400  1
  H  117  1  0.38892300  0.71261500  0.04485800  1
  H  118  1  0.44592100  0.84747150  0.03823400  1
  H  119  1  0.54973100  0.91246800  0.03603500  1
  H  120  1  0.49115300  0.96683300  0.95008000  1
  H  121  1  0.38920900  0.89998350  0.95199500  1
  H  122  1  0.21466200  0.01383150  0.97420200  1
  H  123  1  0.11244600  0.05810800  0.93443300  1
  H  124  1  0.16206500  0.77532400  0.92875000  1
  H  125  1  0.27021700  0.00674200  0.02980300  1
  H  126  1  0.17342200  0.06242300  0.07048000  1
  H  130  1  0.11107500  0.83815600  0.06316600  1
  H  156  1  0.54130500  0.91701500  0.29336900  1
  H  157  1  0.71063000  0.84946600  0.29175100  1
  H  158  1  0.54371200  0.96835750  0.37958000  1
  H  159  1  0.71293900  0.89872600  0.37829000  1
  H  160  1  0.84802700  0.70697450  0.37174900  1
  H  161  1  0.91319500  0.53811450  0.36958400  1
  H  162  1  0.96726000  0.54261350  0.28361100  1
  H  163  1  0.90029100  0.71138950  0.28549600  1
  H  164  1  0.01428800  0.77208950  0.30778500  1
  H  165  1  0.05866800  0.82971550  0.26793600  1
  H  166  1  0.77577700  0.06263350  0.26199000  1
  H  167  1  0.73173500  0.00627100  0.30179500  1
  H  168  1  0.78016800  0.00969050  0.35639900  1
  H  169  1  0.00698500  0.72369000  0.36336800  1
  H  170  1  0.06246800  0.76498900  0.40403400  1
  H  173  1  0.83810300  0.05152500  0.39651800  1
  H  198  1  0.91790600  0.54210300  0.62661900  1
  H  199  1  0.84979300  0.44078250  0.62498000  1
  H  200  1  0.96970000  0.48739750  0.71279600  1
  H  201  1  0.89955300  0.38831700  0.71148900  1
  H  202  1  0.70756300  0.44605050  0.70491700  1
  H  203  1  0.53884500  0.55033450  0.70277500  1
  H  204  1  0.54261300  0.49170050  0.61684800  1
  H  205  1  0.71132600  0.38930950  0.61871200  1
  H  206  1  0.82970300  0.11241750  0.60121900  1
  H  207  1  0.06306700  0.16170950  0.59534800  1
  H  208  1  0.00653600  0.26246700  0.63503900  1
  H  209  1  0.00988800  0.21015950  0.68952000  1
  H  210  1  0.76473000  0.17387450  0.73736700  1
  H  214  1  0.05165200  0.11035900  0.72965500  1
  H  219  1  0.82805500  0.04826100  0.17311500  1
  H  220  1  0.89923000  0.00164250  0.12810400  1
  H  228  1  0.10659000  0.86403200  0.11316600  1
  H  235  1  0.04933800  0.12374450  0.50669200  1
  H  236  1  0.00265800  0.09993600  0.46161500  1
  H  245  1  0.86459900  0.03193850  0.44636400  1
  H  246  1  0.10070800  0.05187600  0.55731900  1
  H  252  1  0.47956900  0.33157350  0.99380500  1
  H  253  1  0.48104600  0.18643450  0.00146800  1
  H  260  1  0.65370800  0.97784950  0.02430800  1
  H  261  1  0.65477100  0.37069450  0.97281700  1
  H  267  1  0.33217300  0.18872800  0.32611600  1
  H  268  1  0.18741100  0.33262300  0.33387000  1
  H  277  1  0.97853600  0.36865900  0.35768700  1
  H  279  1  0.37135200  0.97428500  0.30615500  1
  H  285  1  0.19083400  0.47898450  0.66160000  1
  H  286  1  0.33396000  0.48141750  0.66930400  1
  H  293  1  0.36950600  0.65452850  0.69103500  1
  H  295  1  0.97600900  0.65444000  0.63961300  1
  N  10  1  0.89309400  0.10242400  0.88036000  1
  N  14  1  0.80556700  0.19051250  0.99407100  1
  N  17  1  0.56418100  0.43240100  0.00443300  1
  N  26  1  0.17659500  0.81262850  0.66800100  1
  N  43  1  0.43079300  0.57046100  0.65822000  1
  N  45  1  0.92641500  0.09097150  0.76255900  1
  N  49  1  0.08181000  0.94726600  0.90344700  1
  N  58  1  0.98322500  0.92660250  0.42926500  1
  N  59  1  0.94782800  0.97084600  0.23677600  1
  N  63  1  0.86226200  0.19058450  0.82710300  1
  N  128  1  0.56971900  0.00032500  0.99144700  1
  N  129  1  0.09091100  0.98329000  0.09580200  1
  N  171  1  0.43273700  0.00353550  0.33774500  1
  N  172  1  0.00112800  0.43053150  0.32497400  1
  N  211  1  0.00511600  0.56308950  0.67103900  1
  N  213  1  0.97123200  0.08145050  0.57017400  1
  N  222  1  0.10225000  0.00615700  0.21388700  1
  N  223  1  0.19157000  0.94889300  0.16078000  1
  N  238  1  0.00559600  0.89219750  0.54720800  1
  N  239  1  0.94822100  0.86104800  0.49401800  1
  N  255  1  0.81228600  0.01195400  0.00228600  1
  N  270  1  0.19106800  0.00394400  0.32829400  1
  N  271  1  0.01288400  0.17599600  0.33664500  1
  N  288  1  0.00532400  0.80490650  0.65975800  1
  O  1  1  0.85647000  0.14390300  0.97361300  1
  O  7  1  0.79594300  0.20467950  0.81053800  1
  O  54  1  0.85480500  0.16220350  0.01602000  1
  O  64  1  0.80470600  0.13341500  0.87766700  1
  O  65  1  0.90677300  0.17095600  0.88595800  1
  O  66  1  0.89817500  0.24105850  0.81997200  1
  O  224  1  0.13247000  0.06419000  0.21119400  1
  O  225  1  0.20522100  0.00116350  0.14409300  1
  O  226  1  0.17122000  0.92433200  0.21964100  1
  O  227  1  0.24294000  0.86242300  0.15387600  1
  O  240  1  0.06326100  0.80387650  0.54450200  1
  O  241  1  0.00044300  0.79502500  0.47737600  1
  O  242  1  0.92356100  0.90550200  0.55289100  1
  O  243  1  0.86178100  0.89659850  0.48700700  1
  O  257  1  0.82483900  0.95229100  0.98350600  1
  O  258  1  0.82549100  0.97261300  0.02579100  1
  O  272  1  0.16364000  0.98357000  0.35052000  1
  O  273  1  0.95234800  0.22282550  0.31801100  1
  O  274  1  0.14363400  0.99915200  0.30814000  1
  O  275  1  0.97464700  0.20239850  0.36026600  1
  O  289  1  0.98336200  0.85571250  0.68139800  1
  O  290  1  0.22425400  0.82400850  0.64912500  1
  O  291  1  0.00180700  0.85438600  0.63899700  1
  O  292  1  0.20197000  0.82743200  0.69140500  1
