# generated using pymatgen
data_H8C12N5
_symmetry_space_group_name_H-M   'P 1'
_cell_length_a   15.55150000
_cell_length_b   15.55150000
_cell_length_c   31.10310000
_cell_angle_alpha   90.00000000
_cell_angle_beta   90.00000000
_cell_angle_gamma   90.00000000
_symmetry_Int_Tables_number   1
_chemical_formula_structural   H8C12N5
_chemical_formula_sum   'H128 C192 N80'
_cell_volume   7522.25836735
_cell_formula_units_Z   16
loop_
 _symmetry_equiv_pos_site_id
 _symmetry_equiv_pos_as_xyz
  1  'x, y, z'
loop_
 _atom_site_type_symbol
 _atom_site_label
 _atom_site_symmetry_multiplicity
 _atom_site_fract_x
 _atom_site_fract_y
 _atom_site_fract_z
 _atom_site_occupancy
  C  1  1  0.00919400  0.04152700  0.02141900  1
  C  2  1  0.01209400  0.02298200  0.06635500  1
  C  3  1  0.00057200  0.08576500  0.09878900  1
  C  4  1  0.98815500  0.17316500  0.08730100  1
  C  5  1  0.99435400  0.19589700  0.04323900  1
  C  6  1  0.00346600  0.13097800  0.01170400  1
  C  9  1  0.01435100  0.97587300  0.98852500  1
  C  10  1  0.02048700  0.88644800  0.99823400  1
  C  11  1  0.02914100  0.82151500  0.96667800  1
  C  12  1  0.03447200  0.84420100  0.92258300  1
  C  13  1  0.02189300  0.93159400  0.91112700  1
  C  14  1  0.01081700  0.99439200  0.94359700  1
  C  27  1  0.97608600  0.01516700  0.52129500  1
  C  28  1  0.99432200  0.01161900  0.56624600  1
  C  29  1  0.93179400  0.02521300  0.59860600  1
  C  30  1  0.84484100  0.04010500  0.58699300  1
  C  31  1  0.82208800  0.03386200  0.54293600  1
  C  32  1  0.88687200  0.02319300  0.51145700  1
  C  35  1  0.04190400  0.00826200  0.48857200  1
  C  36  1  0.13133100  0.00419200  0.49853900  1
  C  37  1  0.19653300  0.99344000  0.46728100  1
  C  38  1  0.17419300  0.98420000  0.42330200  1
  C  39  1  0.08682800  0.99547200  0.41145100  1
  C  40  1  0.02363800  0.00810200  0.44359200  1
  C  53  1  0.95153400  0.06834000  0.77224700  1
  C  55  1  0.01366500  0.00127200  0.71012200  1
  C  56  1  0.06502800  0.95042800  0.73757900  1
  C  58  1  0.00009000  0.01479400  0.79969500  1
  C  61  1  0.99330600  0.01907100  0.84469400  1
  C  63  1  0.01806900  0.99453700  0.66511700  1
  C  65  1  0.95302900  0.06438600  0.27203100  1
  C  67  1  0.02082000  0.00198600  0.21018700  1
  C  68  1  0.07002400  0.94940600  0.23781400  1
  C  70  1  0.00515900  0.01478200  0.29969200  1
  C  73  1  0.00013400  0.02173300  0.34467000  1
  C  75  1  0.02876700  0.99832100  0.16522200  1
  C  77  1  0.00740700  0.54471900  0.04556900  1
  C  79  1  0.00696400  0.41920600  0.00073300  1
  C  80  1  0.01697600  0.47270700  0.96442800  1
  C  82  1  0.01734900  0.59822500  0.00926100  1
  C  85  1  0.02128900  0.68822900  0.01261800  1
  C  87  1  0.00286100  0.32921400  0.99735400  1
  C  89  1  0.47324500  0.02368100  0.54562100  1
  C  91  1  0.59861100  0.02158100  0.50068000  1
  C  92  1  0.54500600  0.00911100  0.46460600  1
  C  94  1  0.41965600  0.01096900  0.50956300  1
  C  97  1  0.32969800  0.00645600  0.51307400  1
  C  99  1  0.68860800  0.02525000  0.49717500  1
  C  401  1  0.26640400  0.29873700  0.02141900  1
  C  402  1  0.26930400  0.28019200  0.06635500  1
  C  403  1  0.25778200  0.34297500  0.09878900  1
  C  404  1  0.24536500  0.43037500  0.08730100  1
  C  405  1  0.25156400  0.45310700  0.04323900  1
  C  406  1  0.26067600  0.38818800  0.01170400  1
  C  409  1  0.27156100  0.23308300  0.98852500  1
  C  410  1  0.27769700  0.14365800  0.99823400  1
  C  411  1  0.28635100  0.07872500  0.96667800  1
  C  412  1  0.29168200  0.10141100  0.92258300  1
  C  413  1  0.27910300  0.18880400  0.91112700  1
  C  414  1  0.26802700  0.25160200  0.94359700  1
  C  427  1  0.23329600  0.27237700  0.52129500  1
  C  428  1  0.25153200  0.26882900  0.56624600  1
  C  429  1  0.18900400  0.28242300  0.59860600  1
  C  430  1  0.10205100  0.29731500  0.58699300  1
  C  431  1  0.07929800  0.29107200  0.54293600  1
  C  432  1  0.14408200  0.28040300  0.51145700  1
  C  435  1  0.29911400  0.26547200  0.48857200  1
  C  436  1  0.38854100  0.26140200  0.49853900  1
  C  437  1  0.45374300  0.25065000  0.46728100  1
  C  438  1  0.43140300  0.24141000  0.42330200  1
  C  439  1  0.34403800  0.25268200  0.41145100  1
  C  440  1  0.28084800  0.26531200  0.44359200  1
  C  453  1  0.20874400  0.32555000  0.77224700  1
  C  455  1  0.27087500  0.25848200  0.71012200  1
  C  456  1  0.32223800  0.20763800  0.73757900  1
  C  458  1  0.25730000  0.27200400  0.79969500  1
  C  461  1  0.25051600  0.27628100  0.84469400  1
  C  463  1  0.27527900  0.25174700  0.66511700  1
  C  465  1  0.21023900  0.32159600  0.27203100  1
  C  467  1  0.27803000  0.25919600  0.21018700  1
  C  468  1  0.32723400  0.20661600  0.23781400  1
  C  470  1  0.26236900  0.27199200  0.29969200  1
  C  473  1  0.25734400  0.27894300  0.34467000  1
  C  475  1  0.28597700  0.25553100  0.16522200  1
  C  477  1  0.26461700  0.80192900  0.04556900  1
  C  479  1  0.26417400  0.67641600  0.00073300  1
  C  480  1  0.27418600  0.72991700  0.96442800  1
  C  482  1  0.27455900  0.85543500  0.00926100  1
  C  485  1  0.27849900  0.94543900  0.01261800  1
  C  487  1  0.26007100  0.58642400  0.99735400  1
  C  489  1  0.73045500  0.28089100  0.54562100  1
  C  491  1  0.85582100  0.27879100  0.50068000  1
  C  492  1  0.80221600  0.26632100  0.46460600  1
  C  494  1  0.67686600  0.26817900  0.50956300  1
  C  497  1  0.58690800  0.26366600  0.51307400  1
  C  499  1  0.94581800  0.28246000  0.49717500  1
  C  801  1  0.52361400  0.55594700  0.02141900  1
  C  802  1  0.52651400  0.53740200  0.06635500  1
  C  803  1  0.51499200  0.60018500  0.09878900  1
  C  804  1  0.50257500  0.68758500  0.08730100  1
  C  805  1  0.50877400  0.71031700  0.04323900  1
  C  806  1  0.51788600  0.64539800  0.01170400  1
  C  809  1  0.52877100  0.49029300  0.98852500  1
  C  810  1  0.53490700  0.40086800  0.99823400  1
  C  811  1  0.54356100  0.33593500  0.96667800  1
  C  812  1  0.54889200  0.35862100  0.92258300  1
  C  813  1  0.53631300  0.44601400  0.91112700  1
  C  814  1  0.52523700  0.50881200  0.94359700  1
  C  827  1  0.49050600  0.52958700  0.52129500  1
  C  828  1  0.50874200  0.52603900  0.56624600  1
  C  829  1  0.44621400  0.53963300  0.59860600  1
  C  830  1  0.35926100  0.55452500  0.58699300  1
  C  831  1  0.33650800  0.54828200  0.54293600  1
  C  832  1  0.40129200  0.53761300  0.51145700  1
  C  835  1  0.55632400  0.52268200  0.48857200  1
  C  836  1  0.64575100  0.51861200  0.49853900  1
  C  837  1  0.71095300  0.50786000  0.46728100  1
  C  838  1  0.68861300  0.49862000  0.42330200  1
  C  839  1  0.60124800  0.50989200  0.41145100  1
  C  840  1  0.53805800  0.52252200  0.44359200  1
  C  853  1  0.46595400  0.58276000  0.77224700  1
  C  855  1  0.52808500  0.51569200  0.71012200  1
  C  856  1  0.57944800  0.46484800  0.73757900  1
  C  858  1  0.51451000  0.52921400  0.79969500  1
  C  861  1  0.50772600  0.53349100  0.84469400  1
  C  863  1  0.53248900  0.50895700  0.66511700  1
  C  865  1  0.46744900  0.57880600  0.27203100  1
  C  867  1  0.53524000  0.51640600  0.21018700  1
  C  868  1  0.58444400  0.46382600  0.23781400  1
  C  870  1  0.51957900  0.52920200  0.29969200  1
  C  873  1  0.51455400  0.53615300  0.34467000  1
  C  875  1  0.54318700  0.51274100  0.16522200  1
  C  877  1  0.52182700  0.05913890  0.04556900  1
  C  879  1  0.52138400  0.93362600  0.00073300  1
  C  880  1  0.53139600  0.98712700  0.96442800  1
  C  882  1  0.53176900  0.11264490  0.00926100  1
  C  885  1  0.53570900  0.20264900  0.01261800  1
  C  887  1  0.51728100  0.84363400  0.99735400  1
  C  889  1  0.98766500  0.53810100  0.54562100  1
  C  891  1  0.11303090  0.53600100  0.50068000  1
  C  892  1  0.05942590  0.52353100  0.46460600  1
  C  894  1  0.93407600  0.52538900  0.50956300  1
  C  897  1  0.84411800  0.52087600  0.51307400  1
  C  899  1  0.20302800  0.53967000  0.49717500  1
  C  1201  1  0.78082400  0.81315700  0.02141900  1
  C  1202  1  0.78372400  0.79461200  0.06635500  1
  C  1203  1  0.77220200  0.85739500  0.09878900  1
  C  1204  1  0.75978500  0.94479500  0.08730100  1
  C  1205  1  0.76598400  0.96752700  0.04323900  1
  C  1206  1  0.77509600  0.90260800  0.01170400  1
  C  1209  1  0.78598100  0.74750300  0.98852500  1
  C  1210  1  0.79211700  0.65807800  0.99823400  1
  C  1211  1  0.80077100  0.59314500  0.96667800  1
  C  1212  1  0.80610200  0.61583100  0.92258300  1
  C  1213  1  0.79352300  0.70322400  0.91112700  1
  C  1214  1  0.78244700  0.76602200  0.94359700  1
  C  1227  1  0.74771600  0.78679700  0.52129500  1
  C  1228  1  0.76595200  0.78324900  0.56624600  1
  C  1229  1  0.70342400  0.79684300  0.59860600  1
  C  1230  1  0.61647100  0.81173500  0.58699300  1
  C  1231  1  0.59371800  0.80549200  0.54293600  1
  C  1232  1  0.65850200  0.79482300  0.51145700  1
  C  1235  1  0.81353400  0.77989200  0.48857200  1
  C  1236  1  0.90296100  0.77582200  0.49853900  1
  C  1237  1  0.96816300  0.76507000  0.46728100  1
  C  1238  1  0.94582300  0.75583000  0.42330200  1
  C  1239  1  0.85845800  0.76710200  0.41145100  1
  C  1240  1  0.79526800  0.77973200  0.44359200  1
  C  1253  1  0.72316400  0.83997000  0.77224700  1
  C  1255  1  0.78529500  0.77290200  0.71012200  1
  C  1256  1  0.83665800  0.72205800  0.73757900  1
  C  1258  1  0.77172000  0.78642400  0.79969500  1
  C  1261  1  0.76493600  0.79070100  0.84469400  1
  C  1263  1  0.78969900  0.76616700  0.66511700  1
  C  1265  1  0.72465900  0.83601600  0.27203100  1
  C  1267  1  0.79245000  0.77361600  0.21018700  1
  C  1268  1  0.84165400  0.72103600  0.23781400  1
  C  1270  1  0.77678900  0.78641200  0.29969200  1
  C  1273  1  0.77176400  0.79336300  0.34467000  1
  C  1275  1  0.80039700  0.76995100  0.16522200  1
  C  1277  1  0.77903700  0.31634900  0.04556900  1
  C  1279  1  0.77859400  0.19083590  0.00073300  1
  C  1280  1  0.78860600  0.24433700  0.96442800  1
  C  1282  1  0.78897900  0.36985500  0.00926100  1
  C  1285  1  0.79291900  0.45985900  0.01261800  1
  C  1287  1  0.77449100  0.10084390  0.99735400  1
  C  1289  1  0.24487500  0.79531100  0.54562100  1
  C  1291  1  0.37024100  0.79321100  0.50068000  1
  C  1292  1  0.31663600  0.78074100  0.46460600  1
  C  1294  1  0.19128590  0.78259900  0.50956300  1
  C  1297  1  0.10132790  0.77808600  0.51307400  1
  C  1299  1  0.46023800  0.79688000  0.49717500  1
  H  7  1  0.01997900  0.96181600  0.07690400  1
  H  16  1  0.00247500  0.05553100  0.93308000  1
  H  17  1  0.05601400  0.72257300  0.89899400  1
  H  18  1  0.05063000  0.79677800  0.86139000  1
  H  19  1  0.96622200  0.29476200  0.11082300  1
  H  20  1  0.97090500  0.22051300  0.14843200  1
  H  21  1  0.00731000  0.15166900  0.98088600  1
  H  22  1  0.01750200  0.86576800  0.02907300  1
  H  33  1  0.05506600  0.00075800  0.57680700  1
  H  42  1  0.96238900  0.01400300  0.43284100  1
  H  43  1  0.29606800  0.96127600  0.40038800  1
  H  44  1  0.22206800  0.96300000  0.36259400  1
  H  45  1  0.72389100  0.06612000  0.61028000  1
  H  46  1  0.79780600  0.05973100  0.64799600  1
  H  47  1  0.86628900  0.02082000  0.48058500  1
  H  48  1  0.15176500  0.01140600  0.52927200  1
  H  59  1  0.90835600  0.11182300  0.78412700  1
  H  60  1  0.10683800  0.90563300  0.72569900  1
  H  62  1  0.95806800  0.06686900  0.85882400  1
  H  64  1  0.06441700  0.95718000  0.65114400  1
  H  71  1  0.90989800  0.10809700  0.28374100  1
  H  72  1  0.11467500  0.90724300  0.22610600  1
  H  74  1  0.95259600  0.05793600  0.35841400  1
  H  76  1  0.06494400  0.95103300  0.15124100  1
  H  83  1  0.00346600  0.56946300  0.07594900  1
  H  84  1  0.02087200  0.44797100  0.93404500  1
  H  86  1  0.01586900  0.71703600  0.04203300  1
  H  88  1  0.00851300  0.30041300  0.96794800  1
  H  95  1  0.44860400  0.02941800  0.57594900  1
  H  96  1  0.56964900  0.00315000  0.43428800  1
  H  98  1  0.30087000  0.01371500  0.54238600  1
  H  100  1  0.71732000  0.01777900  0.46784700  1
  H  407  1  0.27718900  0.21902600  0.07690400  1
  H  416  1  0.25968500  0.31274100  0.93308000  1
  H  417  1  0.31322400  0.97978300  0.89899400  1
  H  418  1  0.30784000  0.05398800  0.86139000  1
  H  419  1  0.22343200  0.55197200  0.11082300  1
  H  420  1  0.22811500  0.47772300  0.14843200  1
  H  421  1  0.26452000  0.40887900  0.98088600  1
  H  422  1  0.27471200  0.12297800  0.02907300  1
  H  433  1  0.31227600  0.25796800  0.57680700  1
  H  442  1  0.21959900  0.27121300  0.43284100  1
  H  443  1  0.55327800  0.21848600  0.40038800  1
  H  444  1  0.47927800  0.22021000  0.36259400  1
  H  445  1  0.98110100  0.32333000  0.61028000  1
  H  446  1  0.05501600  0.31694100  0.64799600  1
  H  447  1  0.12349900  0.27803000  0.48058500  1
  H  448  1  0.40897500  0.26861600  0.52927200  1
  H  459  1  0.16556600  0.36903300  0.78412700  1
  H  460  1  0.36404800  0.16284300  0.72569900  1
  H  462  1  0.21527800  0.32407900  0.85882400  1
  H  464  1  0.32162700  0.21439000  0.65114400  1
  H  471  1  0.16710800  0.36530700  0.28374100  1
  H  472  1  0.37188500  0.16445300  0.22610600  1
  H  474  1  0.20980600  0.31514600  0.35841400  1
  H  476  1  0.32215400  0.20824300  0.15124100  1
  H  483  1  0.26067600  0.82667300  0.07594900  1
  H  484  1  0.27808200  0.70518100  0.93404500  1
  H  486  1  0.27307900  0.97424600  0.04203300  1
  H  488  1  0.26572300  0.55762300  0.96794800  1
  H  495  1  0.70581400  0.28662800  0.57594900  1
  H  496  1  0.82685900  0.26036000  0.43428800  1
  H  498  1  0.55808000  0.27092500  0.54238600  1
  H  500  1  0.97453000  0.27498900  0.46784700  1
  H  807  1  0.53439900  0.47623600  0.07690400  1
  H  816  1  0.51689500  0.56995100  0.93308000  1
  H  817  1  0.57043400  0.23699300  0.89899400  1
  H  818  1  0.56505000  0.31119800  0.86139000  1
  H  819  1  0.48064200  0.80918200  0.11082300  1
  H  820  1  0.48532500  0.73493300  0.14843200  1
  H  821  1  0.52173000  0.66608900  0.98088600  1
  H  822  1  0.53192200  0.38018800  0.02907300  1
  H  833  1  0.56948600  0.51517800  0.57680700  1
  H  842  1  0.47680900  0.52842300  0.43284100  1
  H  843  1  0.81048800  0.47569600  0.40038800  1
  H  844  1  0.73648800  0.47742000  0.36259400  1
  H  845  1  0.23831100  0.58054000  0.61028000  1
  H  846  1  0.31222600  0.57415100  0.64799600  1
  H  847  1  0.38070900  0.53524000  0.48058500  1
  H  848  1  0.66618500  0.52582600  0.52927200  1
  H  859  1  0.42277600  0.62624300  0.78412700  1
  H  860  1  0.62125800  0.42005300  0.72569900  1
  H  862  1  0.47248800  0.58128900  0.85882400  1
  H  864  1  0.57883700  0.47160000  0.65114400  1
  H  871  1  0.42431800  0.62251700  0.28374100  1
  H  872  1  0.62909500  0.42166300  0.22610600  1
  H  874  1  0.46701600  0.57235600  0.35841400  1
  H  876  1  0.57936400  0.46545300  0.15124100  1
  H  883  1  0.51788600  0.08388290  0.07594900  1
  H  884  1  0.53529200  0.96239100  0.93404500  1
  H  886  1  0.53028900  0.23145600  0.04203300  1
  H  888  1  0.52293300  0.81483300  0.96794800  1
  H  895  1  0.96302400  0.54383800  0.57594900  1
  H  896  1  0.08406890  0.51757000  0.43428800  1
  H  898  1  0.81529000  0.52813500  0.54238600  1
  H  900  1  0.23174000  0.53219900  0.46784700  1
  H  1207  1  0.79160900  0.73344600  0.07690400  1
  H  1216  1  0.77410500  0.82716100  0.93308000  1
  H  1217  1  0.82764400  0.49420300  0.89899400  1
  H  1218  1  0.82226000  0.56840800  0.86139000  1
  H  1219  1  0.73785200  0.06639190  0.11082300  1
  H  1220  1  0.74253500  0.99214300  0.14843200  1
  H  1221  1  0.77894000  0.92329900  0.98088600  1
  H  1222  1  0.78913200  0.63739800  0.02907300  1
  H  1233  1  0.82669600  0.77238800  0.57680700  1
  H  1242  1  0.73401900  0.78563300  0.43284100  1
  H  1243  1  0.06769790  0.73290600  0.40038800  1
  H  1244  1  0.99369800  0.73463000  0.36259400  1
  H  1245  1  0.49552100  0.83775000  0.61028000  1
  H  1246  1  0.56943600  0.83136100  0.64799600  1
  H  1247  1  0.63791900  0.79245000  0.48058500  1
  H  1248  1  0.92339500  0.78303600  0.52927200  1
  H  1259  1  0.67998600  0.88345300  0.78412700  1
  H  1260  1  0.87846800  0.67726300  0.72569900  1
  H  1262  1  0.72969800  0.83849900  0.85882400  1
  H  1264  1  0.83604700  0.72881000  0.65114400  1
  H  1271  1  0.68152800  0.87972700  0.28374100  1
  H  1272  1  0.88630500  0.67887300  0.22610600  1
  H  1274  1  0.72422600  0.82956600  0.35841400  1
  H  1276  1  0.83657400  0.72266300  0.15124100  1
  H  1283  1  0.77509600  0.34109300  0.07594900  1
  H  1284  1  0.79250200  0.21960100  0.93404500  1
  H  1286  1  0.78749900  0.48866600  0.04203300  1
  H  1288  1  0.78014300  0.07204290  0.96794800  1
  H  1295  1  0.22023400  0.80104800  0.57594900  1
  H  1296  1  0.34127900  0.77478000  0.43428800  1
  H  1298  1  0.07249990  0.78534500  0.54238600  1
  H  1300  1  0.48895000  0.78940900  0.46784700  1
  N  8  1  0.97554500  0.23471600  0.11810000  1
  N  15  1  0.04657400  0.78261800  0.89174700  1
  N  23  1  0.01869700  0.95125200  0.86862700  1
  N  24  1  0.02804300  0.73661000  0.97674100  1
  N  25  1  0.99567200  0.28081400  0.03320100  1
  N  26  1  0.00311200  0.06603900  0.14129300  1
  N  34  1  0.78354400  0.05485000  0.61768100  1
  N  41  1  0.23606500  0.96999000  0.39283800  1
  N  49  1  0.06778100  0.99686200  0.36885400  1
  N  50  1  0.28136300  0.99634000  0.47738600  1
  N  51  1  0.73714400  0.03327000  0.53293400  1
  N  52  1  0.95109800  0.02193200  0.64114800  1
  N  54  1  0.95854400  0.05792200  0.72902300  1
  N  57  1  0.05460500  0.95757200  0.78079000  1
  N  66  1  0.96453000  0.05775000  0.22886900  1
  N  69  1  0.06205800  0.95961500  0.28101200  1
  N  78  1  0.00270900  0.45828900  0.03988400  1
  N  81  1  0.02160600  0.55914200  0.97011200  1
  N  90  1  0.55964800  0.02823400  0.53977900  1
  N  93  1  0.45862500  0.00432700  0.47046400  1
  N  408  1  0.23275500  0.49192600  0.11810000  1
  N  415  1  0.30378400  0.03982800  0.89174700  1
  N  423  1  0.27590700  0.20846200  0.86862700  1
  N  424  1  0.28525300  0.99382000  0.97674100  1
  N  425  1  0.25288200  0.53802400  0.03320100  1
  N  426  1  0.26032200  0.32324900  0.14129300  1
  N  434  1  0.04075400  0.31206000  0.61768100  1
  N  441  1  0.49327500  0.22720000  0.39283800  1
  N  449  1  0.32499100  0.25407200  0.36885400  1
  N  450  1  0.53857300  0.25355000  0.47738600  1
  N  451  1  0.99435400  0.29048000  0.53293400  1
  N  452  1  0.20830800  0.27914200  0.64114800  1
  N  454  1  0.21575400  0.31513200  0.72902300  1
  N  457  1  0.31181500  0.21478200  0.78079000  1
  N  466  1  0.22174000  0.31496000  0.22886900  1
  N  469  1  0.31926800  0.21682500  0.28101200  1
  N  478  1  0.25991900  0.71549900  0.03988400  1
  N  481  1  0.27881600  0.81635200  0.97011200  1
  N  490  1  0.81685800  0.28544400  0.53977900  1
  N  493  1  0.71583500  0.26153700  0.47046400  1
  N  808  1  0.48996500  0.74913600  0.11810000  1
  N  815  1  0.56099400  0.29703800  0.89174700  1
  N  823  1  0.53311700  0.46567200  0.86862700  1
  N  824  1  0.54246300  0.25103000  0.97674100  1
  N  825  1  0.51009200  0.79523400  0.03320100  1
  N  826  1  0.51753200  0.58045900  0.14129300  1
  N  834  1  0.29796400  0.56927000  0.61768100  1
  N  841  1  0.75048500  0.48441000  0.39283800  1
  N  849  1  0.58220100  0.51128200  0.36885400  1
  N  850  1  0.79578300  0.51076000  0.47738600  1
  N  851  1  0.25156400  0.54769000  0.53293400  1
  N  852  1  0.46551800  0.53635200  0.64114800  1
  N  854  1  0.47296400  0.57234200  0.72902300  1
  N  857  1  0.56902500  0.47199200  0.78079000  1
  N  866  1  0.47895000  0.57217000  0.22886900  1
  N  869  1  0.57647800  0.47403500  0.28101200  1
  N  878  1  0.51712900  0.97270900  0.03988400  1
  N  881  1  0.53602600  0.07356190  0.97011200  1
  N  890  1  0.07406790  0.54265400  0.53977900  1
  N  893  1  0.97304500  0.51874700  0.47046400  1
  N  1208  1  0.74717500  0.00634587  0.11810000  1
  N  1215  1  0.81820400  0.55424800  0.89174700  1
  N  1223  1  0.79032700  0.72288200  0.86862700  1
  N  1224  1  0.79967300  0.50824000  0.97674100  1
  N  1225  1  0.76730200  0.05244390  0.03320100  1
  N  1226  1  0.77474200  0.83766900  0.14129300  1
  N  1234  1  0.55517400  0.82648000  0.61768100  1
  N  1241  1  0.00769487  0.74162000  0.39283800  1
  N  1249  1  0.83941100  0.76849200  0.36885400  1
  N  1250  1  0.05299290  0.76797000  0.47738600  1
  N  1251  1  0.50877400  0.80490000  0.53293400  1
  N  1252  1  0.72272800  0.79356200  0.64114800  1
  N  1254  1  0.73017400  0.82955200  0.72902300  1
  N  1257  1  0.82623500  0.72920200  0.78079000  1
  N  1266  1  0.73616000  0.82938000  0.22886900  1
  N  1269  1  0.83368800  0.73124500  0.28101200  1
  N  1278  1  0.77433900  0.22991900  0.03988400  1
  N  1281  1  0.79323600  0.33077200  0.97011200  1
  N  1290  1  0.33127800  0.79986400  0.53977900  1
  N  1293  1  0.23025500  0.77595700  0.47046400  1
