# generated using pymatgen
data_CuH8C12(NO2)2
_symmetry_space_group_name_H-M   'P 1'
_cell_length_a   4.53660383
_cell_length_b   11.07324814
_cell_length_c   12.72758126
_cell_angle_alpha   89.26878512
_cell_angle_beta   79.73568184
_cell_angle_gamma   85.89983065
_symmetry_Int_Tables_number   1
_chemical_formula_structural   CuH8C12(NO2)2
_chemical_formula_sum   'Cu2 H16 C24 N4 O8'
_cell_volume   627.52670992
_cell_formula_units_Z   2
loop_
 _symmetry_equiv_pos_site_id
 _symmetry_equiv_pos_as_xyz
  1  'x, y, z'
loop_
 _atom_site_type_symbol
 _atom_site_label
 _atom_site_symmetry_multiplicity
 _atom_site_fract_x
 _atom_site_fract_y
 _atom_site_fract_z
 _atom_site_occupancy
  Cu  Cu1  1  0.16307201  0.19945431  0.22988379  1.0
  Cu  Cu2  1  0.39288719  0.69945028  0.77012287  1.0
  H  H1  1  0.22737289  0.59737342  0.46034777  1.0
  H  H2  1  0.33863870  0.42094532  0.87031071  1.0
  H  H3  1  0.45207036  0.26632718  0.00900080  1.0
  H  H4  1  0.49451931  0.51310720  0.07369039  1.0
  H  H5  1  0.65411583  0.37186680  0.20967225  1.0
  H  H6  1  0.51012945  0.36021769  0.49029006  1.0
  H  H7  1  0.27053682  0.47028955  0.66058501  1.0
  H  H8  1  0.94887957  0.70668188  0.62243625  1.0
  H  H9  1  0.68778459  0.09735727  0.53965448  1.0
  H  H10  1  0.20900879  0.92100239  0.12965767  1.0
  H  H11  1  0.46103258  0.76634503  0.99099920  1.0
  H  H12  1  0.56813791  0.01315813  0.92631144  1.0
  H  H13  1  0.86363311  0.87187585  0.79033609  1.0
  H  H14  1  0.00042280  0.86022233  0.50973004  1.0
  H  H15  1  0.93114377  0.97027600  0.33941734  1.0
  H  H16  1  0.57138694  0.20666029  0.37754755  1.0
  C  C1  1  0.89996358  0.46189864  0.46897897  1.0
  C  C2  1  0.06326489  0.39253235  0.37353045  1.0
  C  C3  1  0.02515756  0.56254869  0.50564083  1.0
  C  C4  1  0.17713819  0.40633169  0.94252534  1.0
  C  C5  1  0.25663577  0.33010451  0.02278882  1.0
  C  C6  1  0.69968843  0.45529461  0.05321961  1.0
  C  C7  1  0.89877926  0.46953937  0.95637898  1.0
  C  C8  1  0.83149310  0.55455212  0.86972939  1.0
  C  C9  1  0.79739236  0.38066213  0.13204491  1.0
  C  C10  1  0.62131261  0.43188047  0.52145309  1.0
  C  C11  1  0.47188118  0.49883644  0.61008103  1.0
  C  C12  1  0.86033667  0.62731927  0.59296159  1.0
  C  C13  1  0.36896191  0.96190056  0.53103517  1.0
  C  C14  1  0.43683654  0.89256467  0.62649220  1.0
  C  C15  1  0.53083499  0.06253837  0.49436828  1.0
  C  C16  1  0.11968172  0.90636629  0.05745688  1.0
  C  C17  1  0.27937685  0.83011720  0.97720415  1.0
  C  C18  1  0.75284559  0.95532727  0.94677431  1.0
  C  C19  1  0.85519058  0.96957824  0.04360757  1.0
  C  C20  1  0.70131489  0.05458827  0.13025800  1.0
  C  C21  1  0.92930873  0.88067331  0.86795486  1.0
  C  C22  1  0.14278245  0.93187532  0.47855452  1.0
  C  C23  1  0.08201067  0.99882475  0.38991557  1.0
  C  C24  1  0.45335739  0.12730037  0.40703357  1.0
  N  N1  1  0.06449998  0.31771680  0.11666785  1.0
  N  N2  1  0.59741682  0.59426207  0.64572259  1.0
  N  N3  1  0.18103748  0.81771756  0.88333729  1.0
  N  N4  1  0.24319603  0.09424676  0.35426507  1.0
  O  O1  1  0.92358112  0.30358600  0.34514388  1.0
  O  O2  1  0.03388456  0.56348554  0.78909272  1.0
  O  O3  1  0.31579995  0.42262078  0.32902484  1.0
  O  O4  1  0.57304670  0.61372389  0.88634597  1.0
  O  O5  1  0.26875542  0.80363114  0.65490951  1.0
  O  O6  1  0.82311937  0.06350593  0.21089459  1.0
  O  O7  1  0.64490782  0.92267042  0.67097195  1.0
  O  O8  1  0.45951618  0.11376729  0.11364195  1.0
