# generated using pymatgen
data_KCd3H48C72(NO2)6
_symmetry_space_group_name_H-M   'P 1'
_cell_length_a   17.96293957
_cell_length_b   18.04265000
_cell_length_c   19.73880000
_cell_angle_alpha   90.06289000
_cell_angle_beta   90.13559009
_cell_angle_gamma   60.16534423
_symmetry_Int_Tables_number   1
_chemical_formula_structural   KCd3H48C72(NO2)6
_chemical_formula_sum   'K2 Cd6 H96 C144 N12 O24'
_cell_volume   5549.43886233
_cell_formula_units_Z   2
loop_
 _symmetry_equiv_pos_site_id
 _symmetry_equiv_pos_as_xyz
  1  'x, y, z'
loop_
 _atom_site_type_symbol
 _atom_site_label
 _atom_site_symmetry_multiplicity
 _atom_site_fract_x
 _atom_site_fract_y
 _atom_site_fract_z
 _atom_site_occupancy
  K  K0  1  0.33323000  0.33343667  0.75055000  1
  K  K1  1  0.66677000  0.66660000  0.24944000  1
  Cd  Cd2  1  0.21482000  0.57024000  0.74996000  1
  Cd  Cd3  1  0.21524000  0.21449000  0.74997000  1
  Cd  Cd4  1  0.57031000  0.21469000  0.74998000  1
  Cd  Cd5  1  0.78518000  0.42976000  0.25004000  1
  Cd  Cd6  1  0.78476000  0.78552000  0.25003000  1
  Cd  Cd7  1  0.42970000  0.78530000  0.25002000  1
  H  H8  1  0.06038000  0.60687000  0.53621000  1
  H  H9  1  0.12019000  0.40074000  0.39491000  1
  H  H10  1  0.22419000  0.29950000  0.47707000  1
  H  H11  1  0.24312000  0.35002000  0.58995000  1
  H  H12  1  0.93758000  0.59863000  0.24875000  1
  H  H13  1  0.04363000  0.48816000  0.32510000  1
  H  H14  1  0.96588000  0.68494000  0.47818000  1
  H  H15  1  0.86260000  0.78618000  0.39563000  1
  H  H16  1  0.33180000  0.06050000  0.53636000  1
  H  H17  1  0.47928000  0.12023000  0.39549000  1
  H  H18  1  0.47645000  0.22470000  0.47723000  1
  H  H19  1  0.40643000  0.24373000  0.58989000  1
  H  H20  1  0.46354000  0.93834000  0.24940000  1
  H  H21  1  0.46802000  0.04432000  0.32589000  1
  H  H22  1  0.34907000  0.96523000  0.47850000  1
  H  H23  1  0.35126000  0.86182000  0.39591000  1
  H  H24  1  0.60762000  0.33185000  0.53645000  1
  H  H25  1  0.39988000  0.47948000  0.39583000  1
  H  H26  1  0.29833000  0.47668000  0.47781000  1
  H  H27  1  0.34963000  0.40645000  0.59037000  1
  H  H28  1  0.59779000  0.46354000  0.24940000  1
  H  H29  1  0.48720000  0.46812000  0.32596000  1
  H  H30  1  0.68594000  0.34894000  0.47847000  1
  H  H31  1  0.78717000  0.35117000  0.39581000  1
  H  H32  1  0.33287000  0.60675000  0.96368000  1
  H  H33  1  0.47871000  0.40075000  0.10508000  1
  H  H34  1  0.47625000  0.29942000  0.02290000  1
  H  H35  1  0.40740000  0.34984000  0.90976000  1
  H  H36  1  0.46402000  0.59827000  0.25103000  1
  H  H37  1  0.46796000  0.48799000  0.17468000  1
  H  H38  1  0.34899000  0.68501000  0.02176000  1
  H  H39  1  0.35181000  0.78594000  0.10425000  1
  H  H40  1  0.60724000  0.06043000  0.96372000  1
  H  H41  1  0.40019000  0.12081000  0.10473000  1
  H  H42  1  0.29863000  0.22492000  0.02280000  1
  H  H43  1  0.34946000  0.24339000  0.90992000  1
  H  H44  1  0.59790000  0.93822000  0.25054000  1
  H  H45  1  0.48755000  0.04464000  0.17412000  1
  H  H46  1  0.68562000  0.96547000  0.02156000  1
  H  H47  1  0.78652000  0.86163000  0.10412000  1
  H  H48  1  0.06032000  0.33211000  0.96391000  1
  H  H49  1  0.12125000  0.47925000  0.10426000  1
  H  H50  1  0.22520000  0.47663000  0.02209000  1
  H  H51  1  0.24343000  0.40726000  0.90948000  1
  H  H52  1  0.93871000  0.46388000  0.25062000  1
  H  H53  1  0.04506000  0.46804000  0.17410000  1
  H  H54  1  0.96524000  0.34892000  0.02169000  1
  H  H55  1  0.86151000  0.35164000  0.10429000  1
  H  H56  1  0.93963000  0.39312000  0.46379000  1
  H  H57  1  0.87981000  0.59926000  0.60509000  1
  H  H58  1  0.77582000  0.70049000  0.52293000  1
  H  H59  1  0.75689000  0.64997000  0.41005000  1
  H  H60  1  0.06243000  0.40136000  0.75125000  1
  H  H61  1  0.95638000  0.51184000  0.67490000  1
  H  H62  1  0.03413000  0.31505000  0.52182000  1
  H  H63  1  0.13740000  0.21382000  0.60437000  1
  H  H64  1  0.66821000  0.93949000  0.46364000  1
  H  H65  1  0.52072000  0.87977000  0.60451000  1
  H  H66  1  0.52355000  0.77530000  0.52277000  1
  H  H67  1  0.59357000  0.75627000  0.41011000  1
  H  H68  1  0.53646000  0.06166000  0.75060000  1
  H  H69  1  0.53198000  0.95568000  0.67411000  1
  H  H70  1  0.65093000  0.03477000  0.52150000  1
  H  H71  1  0.64874000  0.13818000  0.60409000  1
  H  H72  1  0.39239000  0.66814000  0.46355000  1
  H  H73  1  0.60013000  0.52051000  0.60417000  1
  H  H74  1  0.70168000  0.52331000  0.52219000  1
  H  H75  1  0.65037000  0.59355000  0.40963000  1
  H  H76  1  0.40221000  0.53646000  0.75060000  1
  H  H77  1  0.51280000  0.53188000  0.67404000  1
  H  H78  1  0.31407000  0.65105000  0.52153000  1
  H  H79  1  0.21283000  0.64883000  0.60419000  1
  H  H80  1  0.66713000  0.39325000  0.03632000  1
  H  H81  1  0.52130000  0.59924000  0.89492000  1
  H  H82  1  0.52376000  0.70057000  0.97710000  1
  H  H83  1  0.59260000  0.65016000  0.09024000  1
  H  H84  1  0.53598000  0.40173000  0.74897000  1
  H  H85  1  0.53204000  0.51201000  0.82532000  1
  H  H86  1  0.65101000  0.31499000  0.97824000  1
  H  H87  1  0.64820000  0.21405000  0.89575000  1
  H  H88  1  0.39277000  0.93956000  0.03628000  1
  H  H89  1  0.59981000  0.87919000  0.89527000  1
  H  H90  1  0.70137000  0.77508000  0.97720000  1
  H  H91  1  0.65055000  0.75660000  0.09008000  1
  H  H92  1  0.40211000  0.06177000  0.74946000  1
  H  H93  1  0.51246000  0.95535000  0.82588000  1
  H  H94  1  0.31438000  0.03453000  0.97844000  1
  H  H95  1  0.21348000  0.13837000  0.89588000  1
  H  H96  1  0.93968000  0.66789000  0.03609000  1
  H  H97  1  0.87875000  0.52075000  0.89574000  1
  H  H98  1  0.77480000  0.52337000  0.97791000  1
  H  H99  1  0.75658000  0.59273000  0.09052000  1
  H  H100  1  0.06129000  0.53612000  0.74938000  1
  H  H101  1  0.95495000  0.53195000  0.82590000  1
  H  H102  1  0.03476000  0.65108000  0.97831000  1
  H  H103  1  0.13850000  0.64835000  0.89570000  1
  C  C104  1  0.15187000  0.48236000  0.56857000  1
  C  C105  1  0.09398000  0.54004000  0.52141000  1
  C  C106  1  0.08022000  0.51312000  0.45805000  1
  C  C107  1  0.12866000  0.42488000  0.44310000  1
  C  C108  1  0.18721000  0.36708000  0.48972000  1
  C  C109  1  0.19875000  0.39495000  0.55287000  1
  C  C110  1  0.16423000  0.51595000  0.63461000  1
  C  C111  1  0.94679000  0.61466000  0.30010000  1
  C  C112  1  0.00621000  0.55337000  0.34350000  1
  C  C113  1  0.01742000  0.57539000  0.41003000  1
  C  C114  1  0.96374000  0.66195000  0.42776000  1
  C  C115  1  0.90538000  0.71972000  0.38193000  1
  C  C116  1  0.36529000  0.15212000  0.56863000  1
  C  C117  1  0.36529000  0.09419000  0.52160000  1
  C  C118  1  0.40625000  0.08040000  0.45846000  1
  C  C119  1  0.44638000  0.12889000  0.44351000  1
  C  C120  1  0.44555000  0.18771000  0.48988000  1
  C  C121  1  0.40589000  0.19929000  0.55287000  1
  C  C122  1  0.31971000  0.16402000  0.63472000  1
  C  C123  1  0.43840000  0.94716000  0.30069000  1
  C  C124  1  0.44029000  0.00655000  0.34415000  1
  C  C125  1  0.40697000  0.01739000  0.41054000  1
  C  C126  1  0.37421000  0.96329000  0.42815000  1
  C  C127  1  0.37485000  0.90491000  0.38228000  1
  C  C128  1  0.48245000  0.36523000  0.56884000  1
  C  C129  1  0.54035000  0.36539000  0.52178000  1
  C  C130  1  0.51307000  0.40642000  0.45866000  1
  C  C131  1  0.42430000  0.44658000  0.44384000  1
  C  C132  1  0.36632000  0.44578000  0.49034000  1
  C  C133  1  0.39454000  0.40601000  0.55327000  1
  C  C134  1  0.51620000  0.31918000  0.63473000  1
  C  C135  1  0.61417000  0.43844000  0.30072000  1
  C  C136  1  0.55282000  0.44037000  0.34423000  1
  C  C137  1  0.57542000  0.40705000  0.41063000  1
  C  C138  1  0.66252000  0.37417000  0.42816000  1
  C  C139  1  0.72032000  0.37479000  0.38225000  1
  C  C140  1  0.36609000  0.48220000  0.93126000  1
  C  C141  1  0.36617000  0.53990000  0.97846000  1
  C  C142  1  0.40661000  0.51310000  0.04186000  1
  C  C143  1  0.44629000  0.42487000  0.05684000  1
  C  C144  1  0.44574000  0.36701000  0.01019000  1
  C  C145  1  0.40669000  0.39477000  0.94689000  1
  C  C146  1  0.31965000  0.51634000  0.86551000  1
  C  C147  1  0.43883000  0.61437000  0.19970000  1
  C  C148  1  0.44042000  0.55319000  0.15631000  1
  C  C149  1  0.40711000  0.57539000  0.08985000  1
  C  C150  1  0.37433000  0.66193000  0.07212000  1
  C  C151  1  0.37527000  0.71954000  0.11794000  1
  C  C152  1  0.48240000  0.15204000  0.93132000  1
  C  C153  1  0.54010000  0.09412000  0.97843000  1
  C  C154  1  0.51303000  0.08042000  0.04162000  1
  C  C155  1  0.42444000  0.12911000  0.05657000  1
  C  C156  1  0.36649000  0.18775000  0.01006000  1
  C  C157  1  0.39455000  0.19907000  0.94694000  1
  C  C158  1  0.51676000  0.16404000  0.86556000  1
  C  C159  1  0.61417000  0.94710000  0.19927000  1
  C  C160  1  0.55300000  0.00665000  0.15586000  1
  C  C161  1  0.57546000  0.01747000  0.08949000  1
  C  C162  1  0.66230000  0.96341000  0.07184000  1
  C  C163  1  0.71992000  0.90485000  0.11769000  1
  C  C164  1  0.15212000  0.36547000  0.93110000  1
  C  C165  1  0.09418000  0.36562000  0.97831000  1
  C  C166  1  0.08055000  0.40658000  0.04143000  1
  C  C167  1  0.12934000  0.44659000  0.05621000  1
  C  C168  1  0.18793000  0.44589000  0.00960000  1
  C  C169  1  0.19916000  0.40643000  0.94656000  1
  C  C170  1  0.16440000  0.31894000  0.86542000  1
  C  C171  1  0.94742000  0.43876000  0.19933000  1
  C  C172  1  0.00696000  0.44051000  0.15584000  1
  C  C173  1  0.01759000  0.40720000  0.08946000  1
  C  C174  1  0.96334000  0.37434000  0.07194000  1
  C  C175  1  0.90482000  0.37516000  0.11784000  1
  C  C176  1  0.84813000  0.51764000  0.43143000  1
  C  C177  1  0.90602000  0.45997000  0.47859000  1
  C  C178  1  0.91978000  0.48688000  0.54195000  1
  C  C179  1  0.87135000  0.57511000  0.55690000  1
  C  C180  1  0.81280000  0.63291000  0.51028000  1
  C  C181  1  0.80125000  0.60505000  0.44713000  1
  C  C182  1  0.83577000  0.48405000  0.36539000  1
  C  C183  1  0.05321000  0.38534000  0.69990000  1
  C  C184  1  0.99379000  0.44664000  0.65650000  1
  C  C185  1  0.98259000  0.42460000  0.58997000  1
  C  C186  1  0.03627000  0.33804000  0.57224000  1
  C  C187  1  0.09463000  0.28027000  0.61807000  1
  C  C188  1  0.63472000  0.84788000  0.43137000  1
  C  C189  1  0.63472000  0.90580000  0.47840000  1
  C  C190  1  0.59376000  0.91960000  0.54154000  1
  C  C191  1  0.55362000  0.87111000  0.55649000  1
  C  C192  1  0.55446000  0.81228000  0.51011000  1
  C  C193  1  0.59411000  0.80071000  0.44713000  1
  C  C194  1  0.68029000  0.83598000  0.36528000  1
  C  C195  1  0.56161000  0.05284000  0.69931000  1
  C  C196  1  0.55971000  0.99345000  0.65584000  1
  C  C197  1  0.59303000  0.98261000  0.58946000  1
  C  C198  1  0.62580000  0.03670000  0.57185000  1
  C  C199  1  0.62515000  0.09510000  0.61772000  1
  C  C200  1  0.51756000  0.63476000  0.43116000  1
  C  C201  1  0.45965000  0.63461000  0.47822000  1
  C  C202  1  0.48693000  0.59359000  0.54134000  1
  C  C203  1  0.57571000  0.55341000  0.55616000  1
  C  C204  1  0.63369000  0.55421000  0.50966000  1
  C  C205  1  0.60546000  0.59399000  0.44673000  1
  C  C206  1  0.48380000  0.68083000  0.36527000  1
  C  C207  1  0.38583000  0.56156000  0.69928000  1
  C  C208  1  0.44718000  0.55963000  0.65577000  1
  C  C209  1  0.42458000  0.59295000  0.58937000  1
  C  C210  1  0.33748000  0.62583000  0.57184000  1
  C  C211  1  0.27969000  0.62520000  0.61775000  1
  C  C212  1  0.63392000  0.51779000  0.06874000  1
  C  C213  1  0.63383000  0.46010000  0.02154000  1
  C  C214  1  0.59340000  0.48689000  0.95814000  1
  C  C215  1  0.55371000  0.57513000  0.94316000  1
  C  C216  1  0.55426000  0.63300000  0.98981000  1
  C  C217  1  0.59332000  0.60522000  0.05311000  1
  C  C218  1  0.68036000  0.48365000  0.13449000  1
  C  C219  1  0.56117000  0.38563000  0.80030000  1
  C  C220  1  0.55959000  0.44680000  0.84369000  1
  C  C221  1  0.59290000  0.42460000  0.91015000  1
  C  C222  1  0.62567000  0.33807000  0.92788000  1
  C  C223  1  0.62474000  0.28045000  0.88206000  1
  C  C224  1  0.51761000  0.84795000  0.06868000  1
  C  C225  1  0.45990000  0.90588000  0.02157000  1
  C  C226  1  0.48698000  0.91958000  0.95838000  1
  C  C227  1  0.57557000  0.87088000  0.94343000  1
  C  C228  1  0.63352000  0.81224000  0.98994000  1
  C  C229  1  0.60545000  0.80094000  0.05306000  1
  C  C230  1  0.48325000  0.83595000  0.13444000  1
  C  C231  1  0.38583000  0.05290000  0.80073000  1
  C  C232  1  0.44701000  0.99334000  0.84414000  1
  C  C233  1  0.42454000  0.98254000  0.91051000  1
  C  C234  1  0.33770000  0.03659000  0.92816000  1
  C  C235  1  0.28009000  0.09514000  0.88231000  1
  C  C236  1  0.84788000  0.63453000  0.06890000  1
  C  C237  1  0.90583000  0.63437000  0.02169000  1
  C  C238  1  0.91946000  0.59341000  0.95857000  1
  C  C239  1  0.87067000  0.55341000  0.94379000  1
  C  C240  1  0.81207000  0.55411000  0.99040000  1
  C  C241  1  0.80085000  0.59357000  0.05344000  1
  C  C242  1  0.83561000  0.68105000  0.13458000  1
  C  C243  1  0.05258000  0.56124000  0.80067000  1
  C  C244  1  0.99304000  0.55949000  0.84416000  1
  C  C245  1  0.98241000  0.59281000  0.91054000  1
  C  C246  1  0.03667000  0.62565000  0.92806000  1
  C  C247  1  0.09518000  0.62484000  0.88216000  1
  N  N248  1  0.89653000  0.69749000  0.31808000  1
  N  N249  1  0.40587000  0.89652000  0.31852000  1
  N  N250  1  0.69750000  0.40590000  0.31850000  1
  N  N251  1  0.40650000  0.69716000  0.18172000  1
  N  N252  1  0.69722000  0.89634000  0.18138000  1
  N  N253  1  0.89650000  0.40636000  0.18154000  1
  N  N254  1  0.10347000  0.30251000  0.68192000  1
  N  N255  1  0.59414000  0.10347000  0.68148000  1
  N  N256  1  0.30250000  0.59410000  0.68150000  1
  N  N257  1  0.59350000  0.30284000  0.81828000  1
  N  N258  1  0.30278000  0.10367000  0.81862000  1
  N  N259  1  0.10350000  0.59364000  0.81846000  1
  O  O260  1  0.12263000  0.59593000  0.64625000  1
  O  O261  1  0.21855000  0.46204000  0.67696000  1
  O  O262  1  0.28167000  0.12183000  0.64650000  1
  O  O263  1  0.31922000  0.21855000  0.67691000  1
  O  O264  1  0.59646000  0.28147000  0.64657000  1
  O  O265  1  0.46216000  0.31811000  0.67669000  1
  O  O266  1  0.28085000  0.59648000  0.85497000  1
  O  O267  1  0.31916000  0.46296000  0.82251000  1
  O  O268  1  0.59715000  0.12261000  0.85469000  1
  O  O269  1  0.46295000  0.21793000  0.82282000  1
  O  O270  1  0.12322000  0.27960000  0.85482000  1
  O  O271  1  0.21807000  0.31909000  0.82246000  1
  O  O272  1  0.87737000  0.40407000  0.35375000  1
  O  O273  1  0.78145000  0.53796000  0.32304000  1
  O  O274  1  0.71833000  0.87818000  0.35350000  1
  O  O275  1  0.68078000  0.78145000  0.32309000  1
  O  O276  1  0.40354000  0.71853000  0.35343000  1
  O  O277  1  0.53785000  0.68188000  0.32331000  1
  O  O278  1  0.71916000  0.40351000  0.14503000  1
  O  O279  1  0.68084000  0.53704000  0.17749000  1
  O  O280  1  0.40285000  0.87739000  0.14531000  1
  O  O281  1  0.53706000  0.78207000  0.17718000  1
  O  O282  1  0.87679000  0.72039000  0.14518000  1
  O  O283  1  0.78194000  0.68090000  0.17754000  1
