# generated using pymatgen
data_V2H14(C5O2)5
_symmetry_space_group_name_H-M   'P 1'
_cell_length_a   7.25651000
_cell_length_b   13.55587000
_cell_length_c   20.16274000
_cell_angle_alpha   76.96931000
_cell_angle_beta   90.20301000
_cell_angle_gamma   90.22354000
_symmetry_Int_Tables_number   1
_chemical_formula_structural   V2H14(C5O2)5
_chemical_formula_sum   'V4 H28 C50 O20'
_cell_volume   1932.27963233
_cell_formula_units_Z   2
loop_
 _symmetry_equiv_pos_site_id
 _symmetry_equiv_pos_as_xyz
  1  'x, y, z'
loop_
 _atom_site_type_symbol
 _atom_site_label
 _atom_site_symmetry_multiplicity
 _atom_site_fract_x
 _atom_site_fract_y
 _atom_site_fract_z
 _atom_site_occupancy
  V  V0  1  0.93534000  0.48811000  0.50231000  1
  V  V1  1  0.43534000  0.51189000  0.49769000  1
  V  V2  1  0.35182000  0.01189000  0.99769000  1
  V  V3  1  0.85182000  0.98811000  0.00231000  1
  H  H4  1  0.16494000  0.84025000  0.51640000  1
  H  H5  1  0.60292000  0.16156000  0.48327000  1
  H  H6  1  0.16074000  0.01621000  0.69311000  1
  H  H7  1  0.57085000  0.98649000  0.30634000  1
  H  H8  1  0.16556000  0.96949000  0.58398000  1
  H  H9  1  0.57590000  0.03316000  0.41551000  1
  H  H10  1  0.13588000  0.60492000  0.69629000  1
  H  H11  1  0.67818000  0.39388000  0.30393000  1
  H  H12  1  0.12309000  0.66442000  0.98729000  1
  H  H13  1  0.68120000  0.33388000  0.01300000  1
  H  H14  1  0.13208000  0.56586000  0.80145000  1
  H  H15  1  0.69212000  0.43236000  0.19889000  1
  H  H16  1  0.15182000  0.97242000  0.81559000  1
  H  H17  1  0.58903000  0.02951000  0.18400000  1
  H  H18  1  0.84424000  0.79301000  0.19251000  1
  H  H19  1  0.34374000  0.20311000  0.80590000  1
  H  H20  1  0.85241000  0.68276000  0.30564000  1
  H  H21  1  0.35208000  0.31351000  0.69281000  1
  H  H22  1  0.44637000  0.70814000  0.30756000  1
  H  H23  1  0.94684000  0.29567000  0.69402000  1
  H  H24  1  0.43845000  0.81848000  0.19445000  1
  H  H25  1  0.93876000  0.18528000  0.80710000  1
  H  H26  1  0.11667000  0.48891000  0.99082000  1
  H  H27  1  0.99396000  0.45985000  0.91975000  1
  H  H28  1  0.24307000  0.45552000  0.92239000  1
  H  H29  1  0.72446000  0.50789000  0.00978000  1
  H  H30  1  0.60496000  0.54895000  0.07688000  1
  H  H31  1  0.85145000  0.52919000  0.08221000  1
  C  C32  1  0.65585000  0.38249000  0.61492000  1
  C  C33  1  0.15576000  0.61754000  0.38508000  1
  C  C34  1  0.65386000  0.36253000  0.43627000  1
  C  C35  1  0.15481000  0.63750000  0.56374000  1
  C  C36  1  0.15883000  0.89032000  0.60998000  1
  C  C37  1  0.59848000  0.11147000  0.38967000  1
  C  C38  1  0.14892000  0.71482000  0.60367000  1
  C  C39  1  0.64347000  0.28535000  0.39629000  1
  C  C40  1  0.12906000  0.68267000  0.93213000  1
  C  C41  1  0.67149000  0.31610000  0.06808000  1
  C  C42  1  0.12798000  0.60511000  0.89692000  1
  C  C43  1  0.68844000  0.39311000  0.10340000  1
  C  C44  1  0.13355000  0.62897000  0.82569000  1
  C  C45  1  0.67767000  0.36974000  0.17455000  1
  C  C46  1  0.14046000  0.73085000  0.78810000  1
  C  C47  1  0.64964000  0.26891000  0.21193000  1
  C  C48  1  0.14301000  0.80911000  0.82489000  1
  C  C49  1  0.63144000  0.19127000  0.17502000  1
  C  C50  1  0.14457000  0.75772000  0.71530000  1
  C  C51  1  0.63948000  0.24246000  0.28465000  1
  C  C52  1  0.15256000  0.86179000  0.68135000  1
  C  C53  1  0.61046000  0.13948000  0.31839000  1
  C  C54  1  0.15492000  0.93681000  0.71868000  1
  C  C55  1  0.59295000  0.06506000  0.28094000  1
  C  C56  1  0.14994000  0.91113000  0.78922000  1
  C  C57  1  0.60340000  0.09030000  0.21048000  1
  C  C58  1  0.14168000  0.68515000  0.67468000  1
  C  C59  1  0.65649000  0.31445000  0.32538000  1
  C  C60  1  0.15803000  0.81716000  0.57140000  1
  C  C61  1  0.61417000  0.18413000  0.42836000  1
  C  C62  1  0.13705000  0.78386000  0.89689000  1
  C  C63  1  0.64289000  0.21600000  0.10311000  1
  C  C64  1  0.97701000  0.77518000  0.21685000  1
  C  C65  1  0.47671000  0.22269000  0.78227000  1
  C  C66  1  0.98139000  0.71182000  0.28207000  1
  C  C67  1  0.48122000  0.28613000  0.71708000  1
  C  C68  1  0.14979000  0.68620000  0.31611000  1
  C  C69  1  0.64991000  0.31385000  0.68390000  1
  C  C70  1  0.31372000  0.72596000  0.28312000  1
  C  C71  1  0.81398000  0.27613000  0.71775000  1
  C  C72  1  0.30939000  0.78935000  0.21791000  1
  C  C73  1  0.80952000  0.21270000  0.78294000  1
  C  C74  1  0.14099000  0.81475000  0.18374000  1
  C  C75  1  0.64084000  0.18519000  0.81624000  1
  C  C76  1  0.63225000  0.13789000  0.06353000  1
  C  C77  1  0.13122000  0.86211000  0.93643000  1
  C  C78  1  0.63502000  0.11697000  0.88543000  1
  C  C79  1  0.13513000  0.88300000  0.11456000  1
  C  C80  1  0.11994000  0.49620000  0.93484000  1
  C  C81  1  0.71908000  0.50086000  0.06571000  1
  O  O82  1  0.49319000  0.40030000  0.44956000  1
  O  O83  1  0.99319000  0.59970000  0.55044000  1
  O  O84  1  0.81994000  0.40424000  0.58796000  1
  O  O85  1  0.31994000  0.59576000  0.41204000  1
  O  O86  1  0.82257000  0.38830000  0.45238000  1
  O  O87  1  0.32257000  0.61170000  0.54762000  1
  O  O88  1  0.99811000  0.58365000  0.41390000  1
  O  O89  1  0.49811000  0.41635000  0.58610000  1
  O  O90  1  0.66251000  0.56411000  0.48753000  1
  O  O91  1  0.16251000  0.43589000  0.51247000  1
  O  O92  1  0.79663000  0.08374000  0.91392000  1
  O  O93  1  0.29663000  0.91626000  0.08608000  1
  O  O94  1  0.46446000  0.11171000  0.04762000  1
  O  O95  1  0.96446000  0.88829000  0.95238000  1
  O  O96  1  0.46722000  0.09578000  0.91204000  1
  O  O97  1  0.96722000  0.90422000  0.08796000  1
  O  O98  1  0.29184000  0.90028000  0.94955000  1
  O  O99  1  0.79184000  0.09972000  0.05045000  1
  O  O100  1  0.62470000  0.93594000  0.01248000  1
  O  O101  1  0.12470000  0.06406000  0.98752000  1
