# generated using pymatgen
data_H7C16(N2O)2
_symmetry_space_group_name_H-M   'P 1'
_cell_length_a   29.23180000
_cell_length_b   32.77404538
_cell_length_c   32.77400000
_cell_angle_alpha   120.00186258
_cell_angle_beta   89.60920000
_cell_angle_gamma   90.39079946
_symmetry_Int_Tables_number   1
_chemical_formula_structural   H7C16(N2O)2
_chemical_formula_sum   'H84 C192 N48 O24'
_cell_volume   27190.93047318
_cell_formula_units_Z   12
loop_
 _symmetry_equiv_pos_site_id
 _symmetry_equiv_pos_as_xyz
  1  'x, y, z'
loop_
 _atom_site_type_symbol
 _atom_site_label
 _atom_site_symmetry_multiplicity
 _atom_site_fract_x
 _atom_site_fract_y
 _atom_site_fract_z
 _atom_site_occupancy
  H  7  1  0.95515200  0.55341100  0.52421800  1
  H  8  1  0.01317100  0.55494300  0.64253400  1
  H  9  1  0.89365200  0.47813900  0.58182700  1
  H  16  1  0.98703600  0.63081900  0.56616700  1
  H  17  1  0.12760100  0.65774300  0.57093200  1
  H  18  1  0.08074300  0.54850400  0.59190200  1
  H  29  1  0.61388100  0.96043300  0.45188200  1
  H  30  1  0.66182700  0.07185900  0.43360000  1
  H  31  1  0.54062000  0.08642200  0.50805400  1
  H  38  1  0.65101300  0.91949100  0.37699500  1
  H  39  1  0.79194300  0.91377200  0.35106600  1
  H  40  1  0.73270700  0.04228500  0.44887600  1
  H  51  1  0.28148600  0.48623700  0.05798300  1
  H  52  1  0.33601100  0.36652200  0.93923900  1
  H  53  1  0.22092700  0.43326200  0.92569600  1
  H  60  1  0.31558700  0.44885200  0.09490000  1
  H  61  1  0.45481300  0.42641200  0.10565000  1
  H  62  1  0.40399700  0.40621000  0.97794600  1
  H  73  1  0.44273400  0.44449800  0.45172600  1
  H  74  1  0.53438300  0.47539700  0.37052800  1
  H  75  1  0.40981000  0.54469800  0.41291500  1
  H  82  1  0.48354700  0.37794300  0.42456300  1
  H  83  1  0.62183500  0.34924000  0.42958300  1
  H  84  1  0.58679300  0.46091700  0.40977100  1
  H  95  1  0.11228900  0.04694000  0.55459800  1
  H  96  1  0.16374100  0.93010300  0.56061600  1
  H  97  1  0.04348500  0.91756300  0.48722000  1
  H  104  1  0.14966000  0.08484100  0.62824500  1
  H  105  1  0.29003900  0.09177500  0.65562000  1
  H  106  1  0.23306200  0.96451000  0.55232700  1
  H  117  1  0.78362100  0.49821000  0.96688900  1
  H  118  1  0.83879400  0.62114600  0.08150300  1
  H  119  1  0.71760900  0.56315800  0.09799900  1
  H  126  1  0.82251800  0.53121300  0.92680200  1
  H  127  1  0.96213000  0.55698400  0.91956600  1
  H  128  1  0.90663100  0.57880100  0.04680600  1
  H  145  1  0.29049400  0.41745700  0.52162500  1
  H  146  1  0.24777600  0.67833500  0.53499300  1
  H  148  1  0.17085000  0.52881200  0.57807700  1
  H  150  1  0.35671200  0.56400000  0.46839400  1
  H  163  1  0.93717600  0.13792600  0.58100000  1
  H  164  1  0.92225100  0.88696600  0.31821100  1
  H  166  1  0.82169500  0.06312100  0.46741900  1
  H  168  1  0.02321200  0.94784900  0.43978000  1
  H  181  1  0.60483900  0.43666000  0.88094700  1
  H  182  1  0.59149400  0.43252100  0.13608800  1
  H  184  1  0.48913700  0.40277900  0.96023200  1
  H  186  1  0.69461500  0.48654200  0.06946300  1
  H  199  1  0.79257600  0.58156100  0.45808900  1
  H  200  1  0.75657500  0.32072200  0.44756700  1
  H  202  1  0.67110600  0.47314600  0.41551700  1
  H  204  1  0.86618400  0.43568900  0.50675500  1
  H  217  1  0.43755800  0.86918200  0.42396300  1
  H  218  1  0.42041100  0.12265300  0.68410900  1
  H  220  1  0.32132400  0.94415400  0.53658900  1
  H  222  1  0.52166400  0.06129500  0.56156000  1
  H  235  1  0.10542300  0.54589600  0.14261900  1
  H  236  1  0.09889200  0.57083500  0.89869000  1
  H  238  1  0.99182400  0.58372100  0.06654100  1
  H  240  1  0.19990500  0.51085800  0.95988400  1
  H  253  1  0.07562200  0.66950300  0.35950800  1
  H  254  1  0.06057300  0.85354600  0.65341000  1
  H  256  1  0.05591000  0.83782500  0.46472800  1
  H  258  1  0.08469100  0.65604400  0.49746200  1
  H  271  1  0.75791600  0.68657400  0.34652400  1
  H  272  1  0.73349800  0.78941900  0.15747000  1
  H  274  1  0.73558300  0.61902500  0.17816400  1
  H  276  1  0.76330400  0.83821700  0.35422200  1
  H  289  1  0.35954100  0.64186900  0.30423600  1
  H  290  1  0.46198000  0.37311500  0.22455100  1
  H  292  1  0.48857500  0.57237600  0.33599900  1
  H  294  1  0.32201200  0.47519500  0.18263600  1
  H  307  1  0.55913800  0.33498500  0.59188500  1
  H  308  1  0.55466700  0.10554600  0.31354900  1
  H  310  1  0.54401000  0.16170800  0.51450000  1
  H  312  1  0.57441600  0.27100800  0.38791600  1
  H  325  1  0.26075200  0.32708000  0.67915500  1
  H  326  1  0.23086900  0.20127900  0.84830300  1
  H  328  1  0.24017700  0.38176400  0.84510900  1
  H  330  1  0.26162000  0.16932700  0.65711500  1
  H  343  1  0.88915800  0.34306200  0.68856600  1
  H  344  1  0.90487700  0.63821500  0.80770200  1
  H  346  1  0.91704400  0.44791300  0.63147300  1
  H  348  1  0.84217300  0.48308300  0.83723800  1
  C  1  1  0.99110800  0.55780600  0.58247100  1
  C  2  1  0.95488200  0.54365300  0.54941500  1
  C  3  1  0.92128300  0.51113900  0.54609400  1
  C  4  1  0.92111700  0.49657300  0.58000400  1
  C  5  1  0.95430400  0.51280000  0.61585700  1
  C  6  1  0.99000700  0.54183400  0.61556100  1
  C  10  1  0.02737900  0.58673400  0.58217100  1
  C  11  1  0.01960900  0.62288900  0.57106600  1
  C  12  1  0.05597200  0.64965400  0.56794500  1
  C  13  1  0.10093100  0.63987400  0.57545800  1
  C  14  1  0.10999300  0.60225700  0.58317500  1
  C  15  1  0.07334000  0.57722900  0.58867900  1
  C  23  1  0.64550500  0.01242500  0.44041100  1
  C  24  1  0.61045000  0.99351600  0.45643300  1
  C  25  1  0.57416000  0.02167600  0.48499000  1
  C  26  1  0.56964400  0.06784700  0.49242500  1
  C  27  1  0.60101500  0.08609700  0.47271500  1
  C  28  1  0.63971700  0.05900400  0.44890200  1
  C  32  1  0.68474700  0.98578800  0.41595000  1
  C  33  1  0.68197900  0.93640600  0.38434400  1
  C  34  1  0.72089200  0.90995100  0.36020900  1
  C  35  1  0.76342200  0.93303900  0.36796400  1
  C  36  1  0.76789400  0.98122200  0.40097200  1
  C  37  1  0.72854500  0.00765000  0.42374100  1
  C  45  1  0.31604600  0.42705200  0.00321100  1
  C  46  1  0.28068300  0.46123100  0.02302000  1
  C  47  1  0.24796000  0.46652500  0.99452100  1
  C  48  1  0.24747400  0.43329000  0.94577000  1
  C  49  1  0.27928700  0.39622000  0.92535400  1
  C  50  1  0.31386300  0.39438600  0.95408100  1
  C  54  1  0.35263000  0.42528500  0.03080900  1
  C  55  1  0.34703000  0.43917600  0.07922300  1
  C  56  1  0.38383700  0.43782100  0.10623100  1
  C  57  1  0.42739400  0.42463400  0.08539700  1
  C  58  1  0.43485500  0.41339200  0.03855600  1
  C  59  1  0.39739100  0.41224100  0.01117600  1
  C  67  1  0.49459700  0.45341400  0.41097800  1
  C  68  1  0.45062300  0.46023000  0.43238500  1
  C  69  1  0.41964200  0.49434700  0.43489300  1
  C  70  1  0.43113600  0.51957100  0.41165700  1
  C  71  1  0.47288300  0.51178000  0.38748300  1
  C  72  1  0.50430500  0.47993600  0.38834000  1
  C  76  1  0.52840000  0.42380500  0.41430100  1
  C  77  1  0.51694600  0.38635000  0.42288700  1
  C  78  1  0.55063000  0.35763200  0.42647400  1
  C  79  1  0.59706700  0.36792100  0.42401500  1
  C  80  1  0.61001900  0.40516100  0.41695200  1
  C  81  1  0.57595900  0.43226700  0.41166000  1
  C  89  1  0.14550400  0.99275900  0.56077100  1
  C  90  1  0.10994200  0.01266200  0.54693900  1
  C  91  1  0.07454400  0.98463900  0.51656400  1
  C  92  1  0.07170800  0.93680600  0.50450800  1
  C  93  1  0.10381100  0.91677500  0.52119500  1
  C  94  1  0.14119700  0.94453100  0.54761200  1
  C  98  1  0.18416100  0.01959300  0.58679100  1
  C  99  1  0.18077500  0.06847100  0.62034600  1
  C  100  1  0.21922000  0.09500900  0.64575800  1
  C  101  1  0.26188000  0.07249900  0.63759800  1
  C  102  1  0.26702600  0.02497100  0.60302100  1
  C  103  1  0.22819700  0.99849600  0.57869300  1
  C  111  1  0.81886800  0.55819900  0.01977100  1
  C  112  1  0.78225700  0.52510700  0.00107900  1
  C  113  1  0.74697600  0.52395200  0.03018200  1
  C  114  1  0.74553700  0.56025900  0.07787400  1
  C  115  1  0.77881200  0.59622100  0.09678500  1
  C  116  1  0.81564500  0.59395400  0.06786900  1
  C  120  1  0.85726100  0.55687500  0.99209200  1
  C  121  1  0.85361900  0.54080200  0.94307200  1
  C  122  1  0.89156700  0.54206000  0.91673500  1
  C  123  1  0.93413600  0.55766400  0.93898000  1
  C  124  1  0.93983900  0.57025400  0.98633300  1
  C  125  1  0.90140600  0.57093700  0.01281800  1
  C  133  1  0.22716000  0.55398200  0.55537400  1
  C  134  1  0.25623600  0.51478300  0.54166300  1
  C  135  1  0.29701100  0.50958900  0.51677800  1
  C  136  1  0.31187600  0.54305300  0.50420600  1
  C  137  1  0.28409300  0.58339200  0.52005200  1
  C  138  1  0.24345800  0.58853600  0.54472700  1
  C  141  1  0.28582400  0.45000000  0.52537400  1
  C  144  1  0.25409400  0.64745400  0.53442300  1
  C  147  1  0.18318000  0.55608700  0.57442500  1
  C  149  1  0.35068400  0.53816700  0.47653100  1
  C  151  1  0.88450900  0.02637500  0.44242000  1
  C  152  1  0.91171000  0.05716800  0.48165300  1
  C  153  1  0.95564400  0.04432700  0.48797000  1
  C  154  1  0.97587000  0.00089300  0.45519500  1
  C  155  1  0.95066000  0.97255300  0.41362600  1
  C  156  1  0.90657900  0.98483700  0.40780600  1
  C  159  1  0.93609300  0.10943500  0.54777600  1
  C  162  1  0.92521100  0.91804000  0.34921500  1
  C  165  1  0.83722100  0.03402100  0.44079600  1
  C  167  1  0.01547300  0.98214500  0.46364600  1
  C  169  1  0.55233700  0.41403700  0.99590000  1
  C  170  1  0.57940100  0.42132500  0.96402700  1
  C  171  1  0.62402800  0.43941800  0.97539100  1
  C  172  1  0.64514300  0.45014700  0.01836900  1
  C  173  1  0.61963200  0.43867800  0.04815200  1
  C  174  1  0.57491600  0.42151000  0.03728000  1
  C  177  1  0.60361100  0.43338500  0.91031700  1
  C  180  1  0.59424100  0.43134000  0.10444500  1
  C  183  1  0.50493800  0.40471000  0.98887700  1
  C  185  1  0.68606100  0.47594600  0.03534200  1
  C  187  1  0.73023700  0.44597000  0.43067500  1
  C  188  1  0.75976900  0.48412400  0.44016100  1
  C  189  1  0.80307900  0.48820300  0.45991200  1
  C  190  1  0.82026300  0.45414800  0.47028700  1
  C  191  1  0.79230700  0.41411200  0.45711500  1
  C  192  1  0.74887100  0.41041300  0.43818500  1
  C  195  1  0.78856300  0.54896400  0.45450900  1
  C  198  1  0.76233500  0.35106100  0.44674600  1
  C  201  1  0.68408200  0.44584800  0.41846200  1
  C  203  1  0.85980800  0.46019300  0.49688500  1
  C  205  1  0.38406600  0.98128500  0.56195800  1
  C  206  1  0.41166400  0.95021400  0.52312000  1
  C  207  1  0.45571300  0.96328800  0.51659700  1
  C  208  1  0.47545600  0.00739000  0.54863400  1
  C  209  1  0.44993100  0.03598700  0.59001600  1
  C  210  1  0.40586500  0.02332100  0.59618300  1
  C  213  1  0.43645300  0.89764400  0.45720800  1
  C  216  1  0.42408200  0.09082000  0.65406700  1
  C  219  1  0.33667800  0.97334000  0.56331500  1
  C  221  1  0.51474600  0.02634500  0.53921900  1
  C  223  1  0.05596800  0.57717500  0.03318500  1
  C  224  1  0.08232400  0.56831000  0.06404200  1
  C  225  1  0.12729300  0.55160000  0.05272400  1
  C  226  1  0.14944800  0.54424400  0.01105900  1
  C  227  1  0.12488800  0.55825600  0.98307300  1
  C  228  1  0.07968300  0.57358000  0.99361000  1
  C  231  1  0.10521800  0.55233200  0.11519200  1
  C  234  1  0.10082800  0.56959400  0.92913700  1
  C  237  1  0.00816600  0.58360600  0.03879600  1
  C  239  1  0.19038400  0.51900000  0.99322000  1
  C  241  1  0.06978900  0.80115400  0.49880300  1
  C  242  1  0.06903700  0.75436000  0.46066100  1
  C  243  1  0.06617700  0.71607000  0.46824400  1
  C  244  1  0.06238300  0.72156600  0.51380500  1
  C  245  1  0.06191700  0.76852000  0.55193400  1
  C  246  1  0.06551000  0.80680200  0.54439200  1
  C  249  1  0.07270400  0.69219400  0.39489600  1
  C  252  1  0.06130900  0.83083900  0.61790800  1
  C  255  1  0.07323800  0.83890200  0.49124600  1
  C  257  1  0.06560900  0.68310700  0.52030700  1
  C  259  1  0.74828600  0.69025400  0.21295900  1
  C  260  1  0.74879100  0.70007500  0.26016400  1
  C  261  1  0.74522500  0.74622500  0.29779200  1
  C  262  1  0.73945700  0.78530200  0.29112100  1
  C  263  1  0.73820100  0.77539300  0.24384900  1
  C  264  1  0.74238200  0.72934000  0.20624200  1
  C  267  1  0.75416900  0.69839400  0.32322700  1
  C  270  1  0.73522200  0.77738900  0.18075300  1
  C  273  1  0.75161400  0.64463400  0.17579600  1
  C  275  1  0.74092100  0.83085400  0.32860700  1
  C  277  1  0.43423600  0.52733300  0.31018600  1
  C  278  1  0.40275200  0.55489500  0.30178200  1
  C  279  1  0.37355300  0.53441800  0.26287900  1
  C  280  1  0.37311900  0.48545900  0.23053900  1
  C  281  1  0.40250900  0.45752600  0.24070000  1
  C  282  1  0.43265200  0.47816300  0.27880700  1
  C  285  1  0.36822700  0.60923900  0.29836100  1
  C  288  1  0.44546700  0.40449800  0.23698300  1
  C  291  1  0.47090900  0.54865400  0.34007000  1
  C  293  1  0.35431000  0.46849900  0.18640900  1
  C  295  1  0.55854300  0.18836500  0.47092700  1
  C  296  1  0.55524500  0.23758000  0.50139300  1
  C  297  1  0.55163900  0.26835900  0.48361200  1
  C  298  1  0.54955500  0.25226200  0.43468000  1
  C  299  1  0.55112200  0.20286400  0.40437900  1
  C  300  1  0.55540900  0.17218800  0.42210400  1
  C  303  1  0.55655800  0.30685800  0.55855300  1
  C  306  1  0.55381800  0.13361300  0.34705600  1
  C  309  1  0.56386200  0.15785000  0.48808400  1
  C  311  1  0.55443700  0.28193800  0.41626900  1
  C  313  1  0.24960600  0.31022600  0.80544000  1
  C  314  1  0.25010900  0.30463100  0.75975000  1
  C  315  1  0.24522700  0.26020900  0.71960300  1
  C  316  1  0.23799500  0.21881100  0.72212000  1
  C  317  1  0.23670200  0.22451200  0.76788300  1
  C  318  1  0.24225400  0.26880100  0.80798000  1
  C  321  1  0.25623600  0.31251600  0.70010200  1
  C  324  1  0.23346500  0.21612300  0.82743000  1
  C  327  1  0.25419000  0.35420200  0.84511200  1
  C  329  1  0.23891500  0.17480400  0.68216800  1
  C  331  1  0.91614400  0.48399000  0.70386300  1
  C  332  1  0.90411700  0.44532100  0.70982800  1
  C  333  1  0.88739000  0.45186500  0.75278200  1
  C  334  1  0.88114700  0.49706200  0.79253900  1
  C  335  1  0.89287700  0.53580800  0.78670400  1
  C  336  1  0.90950200  0.52927800  0.74376100  1
  C  339  1  0.89160100  0.37867900  0.70254500  1
  C  342  1  0.90362100  0.60257400  0.79395900  1
  C  345  1  0.92800800  0.47709300  0.65976700  1
  C  347  1  0.86704800  0.50297800  0.83546900  1
  N  19  1  0.15408000  0.58885600  0.57683900  1
  N  20  1  0.04906100  0.68290300  0.55675200  1
  N  21  1  0.94701700  0.50967100  0.65437500  1
  N  22  1  0.88885900  0.49725500  0.51216400  1
  N  41  1  0.81138500  0.99659000  0.41160400  1
  N  42  1  0.71776200  0.86429500  0.32892800  1
  N  43  1  0.59171600  0.12303200  0.46774700  1
  N  44  1  0.54337700  0.00265700  0.50211800  1
  N  63  1  0.47917100  0.41024000  0.02559200  1
  N  64  1  0.38259500  0.45256600  0.15182800  1
  N  65  1  0.27393600  0.35931600  0.88235600  1
  N  66  1  0.21639800  0.50150900  0.01497400  1
  N  85  1  0.65524200  0.41429100  0.41979000  1
  N  86  1  0.54022600  0.32485100  0.43774500  1
  N  87  1  0.48642700  0.53975700  0.37136000  1
  N  88  1  0.38171900  0.50313900  0.46226700  1
  N  107  1  0.31068800  0.01033500  0.59286800  1
  N  108  1  0.21568300  0.13989300  0.67920700  1
  N  109  1  0.09723300  0.87539900  0.51874100  1
  N  110  1  0.04334500  0.00478000  0.50146600  1
  N  129  1  0.98358200  0.57618700  0.00102900  1
  N  130  1  0.89118600  0.52981800  0.87172100  1
  N  131  1  0.77342500  0.63552600  0.13798000  1
  N  132  1  0.71431800  0.48964100  0.01136300  1
  N  139  1  0.31469100  0.46820600  0.50660000  1
  N  142  1  0.22521400  0.62918100  0.55300100  1
  N  157  1  0.96981400  0.07754000  0.53029500  1
  N  160  1  0.89137000  0.94964200  0.36692500  1
  N  175  1  0.63819100  0.44721200  0.94118300  1
  N  178  1  0.55973600  0.41755100  0.07361900  1
  N  193  1  0.82025000  0.52963900  0.46899600  1
  N  196  1  0.73063200  0.37049400  0.43249900  1
  N  211  1  0.47002700  0.92997300  0.47431200  1
  N  214  1  0.39028200  0.05888600  0.63666200  1
  N  229  1  0.14054000  0.54106900  0.08514900  1
  N  232  1  0.06538600  0.58024400  0.95882700  1
  N  247  1  0.06877700  0.67722900  0.42612000  1
  N  250  1  0.06488700  0.84568500  0.58659200  1
  N  265  1  0.74885200  0.74418600  0.33721600  1
  N  268  1  0.74029600  0.73161200  0.16683000  1
  N  283  1  0.35299300  0.56953900  0.26092000  1
  N  286  1  0.45994500  0.44406600  0.27505200  1
  N  301  1  0.55315800  0.31190100  0.52050200  1
  N  304  1  0.55697600  0.12867900  0.38517100  1
  N  319  1  0.24940700  0.26616000  0.68241700  1
  N  322  1  0.23985200  0.26249800  0.84507100  1
  N  337  1  0.87996200  0.40928300  0.74730700  1
  N  340  1  0.91564300  0.57209200  0.74931400  1
  O  140  1  0.24794000  0.47663900  0.54681600  1
  O  143  1  0.29139700  0.62031000  0.51254300  1
  O  158  1  0.89804300  0.09814200  0.52004200  1
  O  161  1  0.96298600  0.92953400  0.37710200  1
  O  176  1  0.56530300  0.41806700  0.92294900  1
  O  179  1  0.63249500  0.44599900  0.09128100  1
  O  194  1  0.74942300  0.52296600  0.43705900  1
  O  197  1  0.80137500  0.37709000  0.46382600  1
  O  212  1  0.39816800  0.90895100  0.48494800  1
  O  215  1  0.46185000  0.07958900  0.62584400  1
  O  230  1  0.06708300  0.56792200  0.10323400  1
  O  233  1  0.13885700  0.55440300  0.94145800  1
  O  248  1  0.07334000  0.74006400  0.41398700  1
  O  251  1  0.06014900  0.78300400  0.59881700  1
  O  266  1  0.75454700  0.66871500  0.27548500  1
  O  269  1  0.73455800  0.80694700  0.22846500  1
  O  284  1  0.40074400  0.60283900  0.32444500  1
  O  287  1  0.41094200  0.41062500  0.21261500  1
  O  302  1  0.55851900  0.26130400  0.54925900  1
  O  305  1  0.55090000  0.17910200  0.35635000  1
  O  320  1  0.25718700  0.33878700  0.74823400  1
  O  323  1  0.23198100  0.19004300  0.77936300  1
  O  338  1  0.90667700  0.39866900  0.67689100  1
  O  341  1  0.88904300  0.58237600  0.81952100  1
