# generated using pymatgen
data_H13(C8N)2
_symmetry_space_group_name_H-M   'P 1'
_cell_length_a   15.34080000
_cell_length_b   15.34080000
_cell_length_c   46.02250000
_cell_angle_alpha   90.00000000
_cell_angle_beta   90.00000000
_cell_angle_gamma   120.00000000
_symmetry_Int_Tables_number   1
_chemical_formula_structural   H13(C8N)2
_chemical_formula_sum   'H78 C96 N12'
_cell_volume   9379.87075151
_cell_formula_units_Z   6
loop_
 _symmetry_equiv_pos_site_id
 _symmetry_equiv_pos_as_xyz
  1  'x, y, z'
loop_
 _atom_site_type_symbol
 _atom_site_label
 _atom_site_symmetry_multiplicity
 _atom_site_fract_x
 _atom_site_fract_y
 _atom_site_fract_z
 _atom_site_occupancy
  C  1  1  0.04667250  0.04912450  0.98882700  1
  C  2  1  0.14849500  0.12768400  0.99283400  1
  C  3  1  0.20603450  0.18835450  0.96895900  1
  C  4  1  0.16009900  0.16811900  0.94137200  1
  C  5  1  0.05951200  0.09202000  0.93667300  1
  C  6  1  0.00176900  0.03326100  0.96075500  1
  C  7  1  0.19005600  0.14289700  0.02098700  1
  C  8  1  0.89981950  0.95766150  0.95763800  1
  C  10  1  0.98985500  0.98630600  0.01273700  1
  C  11  1  0.03431250  0.00310350  0.04091400  1
  C  12  1  0.97797950  0.94073250  0.06464000  1
  C  13  1  0.87827600  0.86290700  0.05969800  1
  C  14  1  0.83177900  0.84412900  0.03222700  1
  C  15  1  0.88819600  0.90738100  0.00863200  1
  C  16  1  0.13429150  0.08290850  0.04438400  1
  C  18  1  0.84491900  0.89567800  0.98081900  1
  C  23  1  0.02038500  0.07392400  0.90615300  1
  C  26  1  0.31333400  0.27179700  0.97132500  1
  C  29  1  0.01221800  0.96105800  0.09553300  1
  C  32  1  0.72504000  0.75954900  0.02975000  1
  C  35  1  0.00596000  0.95618100  0.32216600  1
  C  36  1  0.98271100  0.85436600  0.32617700  1
  C  37  1  0.98581350  0.79680850  0.30230400  1
  C  38  1  0.01148900  0.84272800  0.27471500  1
  C  39  1  0.03599850  0.94331950  0.27001100  1
  C  40  1  0.03495950  0.00106250  0.29409000  1
  C  41  1  0.95641450  0.81283350  0.35433500  1
  C  42  1  0.06127400  0.10299500  0.29096800  1
  C  44  1  0.99999450  0.01302050  0.34607600  1
  C  45  1  0.97241100  0.96860000  0.37426000  1
  C  46  1  0.96646050  0.02494950  0.39799600  1
  C  47  1  0.98833250  0.12465050  0.39304400  1
  C  48  1  0.01591750  0.17110050  0.36556400  1
  C  49  1  0.02269800  0.11466200  0.34196500  1
  C  50  1  0.95221650  0.86861150  0.37773000  1
  C  52  1  0.05421150  0.15791450  0.31414800  1
  C  57  1  0.05700100  0.98242000  0.23948900  1
  C  60  1  0.96194500  0.68950800  0.30467200  1
  C  63  1  0.95269100  0.99077000  0.42889200  1
  C  66  1  0.03806550  0.27783650  0.36308500  1
  C  69  1  0.95381450  0.99685750  0.65546000  1
  C  70  1  0.87527500  0.02014400  0.65947700  1
  C  71  1  0.81468950  0.01718450  0.63560200  1
  C  72  1  0.83497950  0.99161950  0.60800200  1
  C  73  1  0.91106400  0.96711600  0.60329200  1
  C  74  1  0.96974800  0.96797300  0.62737300  1
  C  75  1  0.85998850  0.04632450  0.68764400  1
  C  76  1  0.04533000  0.94160900  0.62424200  1
  C  78  1  0.01654150  0.00267450  0.67937200  1
  C  79  1  0.99966300  0.03015400  0.70756700  1
  C  80  1  0.06188500  0.03591800  0.73130300  1
  C  81  1  0.13977000  0.01414900  0.72634000  1
  C  82  1  0.15865750  0.98664050  0.69885100  1
  C  83  1  0.09547150  0.97995250  0.67525200  1
  C  84  1  0.91988250  0.05036750  0.71104300  1
  C  86  1  0.10725450  0.94855650  0.64742400  1
  C  91  1  0.92919450  0.94619550  0.57276300  1
  C  94  1  0.73125600  0.04104900  0.63798100  1
  C  97  1  0.04164800  0.05001500  0.76218600  1
  C  100  1  0.24327700  0.96454900  0.69635700  1
  C  103  1  0.89780800  0.97197700  0.82031000  1
  C  104  1  0.90289000  0.97470900  0.85082000  1
  C  105  1  0.97206850  0.95494950  0.86556300  1
  C  106  1  0.03005950  0.92423050  0.84915700  1
  C  107  1  0.02262100  0.91812800  0.81874300  1
  C  108  1  0.95864750  0.94474250  0.80410400  1
  C  117  1  0.07760150  0.10489350  0.15364000  1
  C  118  1  0.07522150  0.09987750  0.18414900  1
  C  119  1  0.98630150  0.03062650  0.19888900  1
  C  120  1  0.89761650  0.97253850  0.18248200  1
  C  121  1  0.89904350  0.97976250  0.15206200  1
  C  122  1  0.98958950  0.04389650  0.13742800  1
  C  131  1  0.03131100  0.92548600  0.48696600  1
  C  132  1  0.02863850  0.92790950  0.51747500  1
  C  133  1  0.04826300  0.01684200  0.53219800  1
  C  134  1  0.07893300  0.10551600  0.51577800  1
  C  135  1  0.08480900  0.10406000  0.48536000  1
  C  136  1  0.05838950  0.01348450  0.47074100  1
  C  145  1  0.55857950  0.52942450  0.02846200  1
  C  146  1  0.46059100  0.45061400  0.02239300  1
  C  147  1  0.42131800  0.43618800  0.99398200  1
  C  148  1  0.48161900  0.50273800  0.97175100  1
  C  149  1  0.57951400  0.58174100  0.97784000  1
  C  150  1  0.61870400  0.59633500  0.00626600  1
  C  159  1  0.97438800  0.44428700  0.36180700  1
  C  160  1  0.99356450  0.54227350  0.35573600  1
  C  161  1  0.01836000  0.58151800  0.32732200  1
  C  162  1  0.02456650  0.52119450  0.30508900  1
  C  163  1  0.00567200  0.42330400  0.31118200  1
  C  164  1  0.98112150  0.38413750  0.33961200  1
  C  173  1  0.47342500  0.02832600  0.69509900  1
  C  174  1  0.55227000  0.00920200  0.68902600  1
  C  175  1  0.56679200  0.98452300  0.66060500  1
  C  176  1  0.50029300  0.97836600  0.63836800  1
  C  177  1  0.42124000  0.99717200  0.64446500  1
  C  178  1  0.40657100  0.02163700  0.67290100  1
  H  9  1  0.20143900  0.21059800  0.92405800  1
  H  17  1  0.83715700  0.81969200  0.07695300  1
  H  19  1  0.16986100  0.09914600  0.06400700  1
  H  20  1  0.26225500  0.19813000  0.02515400  1
  H  21  1  0.77198500  0.84198500  0.97678900  1
  H  22  1  0.86284250  0.94568250  0.93831300  1
  H  24  1  0.95791350  0.08895450  0.90538400  1
  H  25  1  0.07758750  0.12673050  0.89100100  1
  H  27  1  0.34649850  0.30018950  0.94989900  1
  H  28  1  0.35756350  0.24162250  0.98121700  1
  H  30  1  0.09173050  0.98436950  0.09787300  1
  H  31  1  0.97195750  0.89170250  0.10830100  1
  H  33  1  0.67937100  0.78912000  0.02050200  1
  H  34  1  0.69270100  0.72919600  0.05112000  1
  H  43  1  0.01261500  0.80137400  0.25740200  1
  H  51  1  0.98626800  0.16578500  0.41029900  1
  H  53  1  0.93297700  0.83308400  0.39736000  1
  H  54  1  0.93947150  0.74064250  0.35850700  1
  H  55  1  0.07343200  0.23084200  0.31011300  1
  H  56  1  0.08623500  0.13995900  0.27163800  1
  H  58  1  0.13448800  0.04491300  0.23871800  1
  H  59  1  0.05263600  0.92521700  0.22434200  1
  H  61  1  0.95713350  0.65632250  0.28324800  1
  H  62  1  0.88755500  0.64529200  0.31457400  1
  H  64  1  0.89649250  0.91126450  0.43125200  1
  H  65  1  0.92366750  0.03106650  0.44167300  1
  H  67  1  0.11328150  0.32350050  0.35382200  1
  H  68  1  0.04009000  0.31019200  0.38445500  1
  H  77  1  0.79255350  0.99058850  0.59068900  1
  H  85  1  0.18300400  0.01624100  0.74358800  1
  H  87  1  0.90356100  0.06953500  0.73067900  1
  H  88  1  0.80475900  0.06329400  0.69182000  1
  H  89  1  0.16093150  0.92930050  0.64338500  1
  H  90  1  0.05735450  0.91671750  0.60490400  1
  H  92  1  0.91412800  0.86868500  0.57197000  1
  H  93  1  0.87643550  0.95068150  0.55761400  1
  H  95  1  0.70292900  0.04595500  0.61655700  1
  H  96  1  0.76141550  0.11539450  0.64790900  1
  H  98  1  0.01856500  0.10639600  0.76450600  1
  H  99  1  0.11098450  0.07895350  0.77495600  1
  H  101  1  0.21375750  0.88936950  0.68707000  1
  H  102  1  0.27358000  0.96244800  0.71772500  1
  H  109  1  0.08064700  0.90928800  0.85919500  1
  H  110  1  0.85956150  0.99642250  0.86213600  1
  H  111  1  0.85154050  0.99210650  0.80993600  1
  H  112  1  0.06834050  0.89987550  0.80723000  1
  H  114  1  0.03246850  0.94538150  0.90374000  1
  H  116  1  0.89431900  0.92806600  0.76473400  1
  H  123  1  0.83210800  0.92190900  0.19252100  1
  H  124  1  0.14024400  0.14320800  0.19547300  1
  H  125  1  0.14400850  0.15117850  0.14326800  1
  H  126  1  0.83504550  0.93413050  0.14054800  1
  H  128  1  0.91634100  0.97025300  0.23707100  1
  H  130  1  0.03715450  0.10822350  0.09805600  1
  H  137  1  0.09361950  0.17099550  0.52579900  1
  H  138  1  0.00688300  0.86288800  0.52880600  1
  H  139  1  0.01113800  0.85905300  0.47660600  1
  H  140  1  0.10298000  0.16799600  0.47384200  1
  H  142  1  0.05771100  0.08683200  0.57036400  1
  H  144  1  0.07492150  0.96581850  0.43136000  1
  H  151  1  0.45410150  0.49423250  0.95107300  1
  H  152  1  0.41811150  0.40333250  0.03877800  1
  H  153  1  0.58602000  0.53793500  0.04914700  1
  H  154  1  0.62189300  0.62919100  0.96147200  1
  H  156  1  0.28095600  0.38599900  0.97963700  1
  H  158  1  0.75951900  0.64761600  0.02026300  1
  H  165  1  0.04354450  0.54869350  0.28441000  1
  H  166  1  0.98881050  0.58477850  0.37212400  1
  H  167  1  0.95549950  0.41687050  0.38249700  1
  H  168  1  0.01071250  0.38090850  0.29481400  1
  H  170  1  0.10853150  0.72186650  0.31296400  1
  H  172  1  0.89162700  0.24333900  0.35362700  1
  H  179  1  0.50886000  0.95946000  0.61768500  1
  H  180  1  0.59950700  0.01392600  0.70541600  1
  H  181  1  0.46485050  0.04714350  0.71579300  1
  H  182  1  0.37384400  0.99219800  0.62809300  1
  H  184  1  0.61702100  0.89442500  0.64622300  1
  H  186  1  0.35518500  0.11103600  0.68693800  1
  N  113  1  0.98440600  0.96872500  0.89614300  1
  N  115  1  0.96390150  0.95038050  0.77355600  1
  N  127  1  0.98773850  0.01833950  0.22947200  1
  N  129  1  0.99002050  0.03861350  0.10688400  1
  N  141  1  0.03441700  0.01542800  0.56277400  1
  N  143  1  0.05250000  0.01298100  0.44020000  1
  N  155  1  0.32183250  0.35690650  0.98896600  1
  N  157  1  0.71776500  0.67642800  0.01136100  1
  N  169  1  0.03857600  0.68100800  0.32230300  1
  N  171  1  0.96217100  0.28508400  0.34470900  1
  N  183  1  0.64608600  0.96434100  0.65558300  1
  N  185  1  0.32642850  0.04052650  0.67800300  1
