# generated using pymatgen
data_Cu5H17(C6N5)4
_symmetry_space_group_name_H-M   'P 1'
_cell_length_a   10.74873000
_cell_length_b   12.14977000
_cell_length_c   15.27862000
_cell_angle_alpha   97.02204000
_cell_angle_beta   99.25462000
_cell_angle_gamma   105.62899000
_symmetry_Int_Tables_number   1
_chemical_formula_structural   Cu5H17(C6N5)4
_chemical_formula_sum   'Cu10 H34 C48 N40'
_cell_volume   1867.52174145
_cell_formula_units_Z   2
loop_
 _symmetry_equiv_pos_site_id
 _symmetry_equiv_pos_as_xyz
  1  'x, y, z'
loop_
 _atom_site_type_symbol
 _atom_site_label
 _atom_site_symmetry_multiplicity
 _atom_site_fract_x
 _atom_site_fract_y
 _atom_site_fract_z
 _atom_site_occupancy
  Cu  Cu0  1  0.85055000  0.72368000  0.12832000  1
  Cu  Cu1  1  0.57691000  0.49698000  0.12067000  1
  Cu  Cu2  1  0.99894000  0.32658000  0.04350000  1
  Cu  Cu3  1  0.28202000  0.57256000  0.03922000  1
  Cu  Cu4  1  0.61206000  0.59036000  0.50113000  1
  Cu  Cu5  1  0.14945000  0.27633000  0.87168000  1
  Cu  Cu6  1  0.42309000  0.50302000  0.87933000  1
  Cu  Cu7  1  0.00107000  0.67343000  0.95650000  1
  Cu  Cu8  1  0.71798000  0.42744000  0.96078000  1
  Cu  Cu9  1  0.38794000  0.40964000  0.49887000  1
  H  H10  1  0.60079000  0.98654000  0.23794000  1
  H  H11  1  0.61852000  0.29477000  0.13902000  1
  H  H12  1  0.72915000  0.15519000  0.19545000  1
  H  H13  1  0.37357000  0.94519000  0.24266000  1
  H  H14  1  0.25157000  0.07956000  0.18828000  1
  H  H15  1  0.25419000  0.76513000  0.39316000  1
  H  H16  1  0.42637000  0.73230000  0.50755000  1
  H  H17  1  0.54718000  0.53783000  0.31062000  1
  H  H18  1  0.38002000  0.56312000  0.19145000  1
  H  H19  1  0.08763000  0.30177000  0.20208000  1
  H  H20  1  0.27001000  0.29639000  0.31903000  1
  H  H21  1  0.17840000  0.52654000  0.50714000  1
  H  H22  1  0.99435000  0.54407000  0.39439000  1
  H  H23  1  0.57229000  0.98959000  0.97912000  1
  H  H24  1  0.90525000  0.92024000  0.13721000  1
  H  H25  1  0.04452000  0.10811000  0.11162000  1
  H  H26  1  0.72180000  0.17712000  0.96618000  1
  H  H27  1  0.39921000  0.01346000  0.76206000  1
  H  H28  1  0.38148000  0.70523000  0.86098000  1
  H  H29  1  0.27085000  0.84481000  0.80455000  1
  H  H30  1  0.62643000  0.05481000  0.75734000  1
  H  H31  1  0.74843000  0.92045000  0.81172000  1
  H  H32  1  0.74581000  0.23487000  0.60685000  1
  H  H33  1  0.57364000  0.26770000  0.49246000  1
  H  H34  1  0.45283000  0.46218000  0.68939000  1
  H  H35  1  0.61998000  0.43688000  0.80856000  1
  H  H36  1  0.91238000  0.69824000  0.79793000  1
  H  H37  1  0.72999000  0.70362000  0.68097000  1
  H  H38  1  0.82160000  0.47346000  0.49286000  1
  H  H39  1  0.00565000  0.45593000  0.60561000  1
  H  H40  1  0.42772000  0.01042000  0.02088000  1
  H  H41  1  0.09475000  0.07976000  0.86279000  1
  H  H42  1  0.95548000  0.89189000  0.88838000  1
  H  H43  1  0.27820000  0.82289000  0.03382000  1
  C  C44  1  0.35437000  0.27718000  0.12574000  1
  C  C45  1  0.42515000  0.20271000  0.16126000  1
  C  C46  1  0.56278000  0.22128000  0.16401000  1
  C  C47  1  0.62538000  0.14498000  0.19407000  1
  C  C48  1  0.42172000  0.02459000  0.22058000  1
  C  C49  1  0.35708000  0.09989000  0.19083000  1
  C  C50  1  0.19589000  0.67575000  0.21305000  1
  C  C51  1  0.30046000  0.66589000  0.28095000  1
  C  C52  1  0.31758000  0.71470000  0.37278000  1
  C  C53  1  0.41294000  0.69656000  0.43666000  1
  C  C54  1  0.48056000  0.58730000  0.32680000  1
  C  C55  1  0.38740000  0.60243000  0.26031000  1
  C  C56  1  0.92323000  0.43860000  0.21737000  1
  C  C57  1  0.02646000  0.42709000  0.28635000  1
  C  C58  1  0.10568000  0.35494000  0.26790000  1
  C  C59  1  0.20799000  0.35103000  0.33339000  1
  C  C60  1  0.15646000  0.47961000  0.43847000  1
  C  C61  1  0.05285000  0.48796000  0.37557000  1
  C  C62  1  0.63781000  0.82861000  0.07279000  1
  C  C63  1  0.72320000  0.93879000  0.06192000  1
  C  C64  1  0.67499000  0.01373000  0.01248000  1
  C  C65  1  0.76003000  0.11846000  0.00351000  1
  C  C66  1  0.93845000  0.07945000  0.08594000  1
  C  C67  1  0.85987000  0.97452000  0.09884000  1
  C  C68  1  0.64564000  0.72282000  0.87427000  1
  C  C69  1  0.57485000  0.79730000  0.83875000  1
  C  C70  1  0.43722000  0.77872000  0.83599000  1
  C  C71  1  0.37462000  0.85502000  0.80593000  1
  C  C72  1  0.57828000  0.97541000  0.77943000  1
  C  C73  1  0.64293000  0.90011000  0.80917000  1
  C  C74  1  0.80411000  0.32425000  0.78695000  1
  C  C75  1  0.69954000  0.33411000  0.71905000  1
  C  C76  1  0.68243000  0.28530000  0.62722000  1
  C  C77  1  0.58706000  0.30345000  0.56334000  1
  C  C78  1  0.51944000  0.41271000  0.67320000  1
  C  C79  1  0.61260000  0.39757000  0.73970000  1
  C  C80  1  0.07677000  0.56140000  0.78263000  1
  C  C81  1  0.97354000  0.57292000  0.71366000  1
  C  C82  1  0.89433000  0.64507000  0.73210000  1
  C  C83  1  0.79201000  0.64897000  0.66666667  1
  C  C84  1  0.84354000  0.52039000  0.56153000  1
  C  C85  1  0.94715000  0.51205000  0.62444000  1
  C  C86  1  0.36219000  0.17139000  0.92721000  1
  C  C87  1  0.27681000  0.06121000  0.93808000  1
  C  C88  1  0.32501000  0.98628000  0.98752000  1
  C  C89  1  0.23997000  0.88154000  0.99650000  1
  C  C90  1  0.06155000  0.92056000  0.91406000  1
  C  C91  1  0.14013000  0.02548000  0.90116000  1
  N  N92  1  0.68206000  0.74267000  0.10330000  1
  N  N93  1  0.57316000  0.65354000  0.10047000  1
  N  N94  1  0.46763000  0.68586000  0.06929000  1
  N  N95  1  0.50452000  0.79433000  0.05251000  1
  N  N96  1  0.89089000  0.15326000  0.03994000  1
  N  N97  1  0.40358000  0.38527000  0.10491000  1
  N  N98  1  0.29531000  0.41793000  0.07180000  1
  N  N99  1  0.18776000  0.33303000  0.07332000  1
  N  N100  1  0.22057000  0.24528000  0.10597000  1
  N  N101  1  0.55624000  0.04780000  0.22373000  1
  N  N102  1  0.06700000  0.66093000  0.08533000  1
  N  N103  1  0.01945000  0.70708000  0.15201000  1
  N  N104  1  0.09741000  0.71842000  0.23224000  1
  N  N105  1  0.17861000  0.64038000  0.12212000  1
  N  N106  1  0.49438000  0.63153000  0.41615000  1
  N  N107  1  0.91303000  0.41091000  0.12644000  1
  N  N108  1  0.80552000  0.43787000  0.08870000  1
  N  N109  1  0.75305000  0.47960000  0.15483000  1
  N  N110  1  0.82421000  0.48109000  0.23553000  1
  N  N111  1  0.23681000  0.41304000  0.41921000  1
  N  N112  1  0.31794000  0.25733000  0.89670000  1
  N  N113  1  0.42685000  0.34646000  0.89953000  1
  N  N114  1  0.53237000  0.31414000  0.93071000  1
  N  N115  1  0.49548000  0.20567000  0.94750000  1
  N  N116  1  0.10912000  0.84674000  0.96006000  1
  N  N117  1  0.59642000  0.61473000  0.89510000  1
  N  N118  1  0.70470000  0.58207000  0.92820000  1
  N  N119  1  0.81224000  0.66697000  0.92668000  1
  N  N120  1  0.77943000  0.75472000  0.89403000  1
  N  N121  1  0.44376000  0.95220000  0.77627000  1
  N  N122  1  0.93300000  0.33907000  0.91468000  1
  N  N123  1  0.98056000  0.29292000  0.84799000  1
  N  N124  1  0.90259000  0.28158000  0.76776000  1
  N  N125  1  0.82139000  0.35962000  0.87788000  1
  N  N126  1  0.50563000  0.36847000  0.58386000  1
  N  N127  1  0.08698000  0.58909000  0.87357000  1
  N  N128  1  0.19448000  0.56214000  0.91130000  1
  N  N129  1  0.24695000  0.52040000  0.84518000  1
  N  N130  1  0.17580000  0.51892000  0.76447000  1
  N  N131  1  0.76319000  0.58696000  0.58079000  1
