# generated using pymatgen
data_H12C14N3
_symmetry_space_group_name_H-M   'P 1'
_cell_length_a   10.01533333
_cell_length_b   36.53100001
_cell_length_c   36.53140000
_cell_angle_alpha   120.00108663
_cell_angle_beta   90.00000000
_cell_angle_gamma   90.00000000
_symmetry_Int_Tables_number   1
_chemical_formula_structural   H12C14N3
_chemical_formula_sum   'H72 C84 N18'
_cell_volume   11574.95100380
_cell_formula_units_Z   6
loop_
 _symmetry_equiv_pos_site_id
 _symmetry_equiv_pos_as_xyz
  1  'x, y, z'
loop_
 _atom_site_type_symbol
 _atom_site_label
 _atom_site_symmetry_multiplicity
 _atom_site_fract_x
 _atom_site_fract_y
 _atom_site_fract_z
 _atom_site_occupancy
  C  1  1  0.07665200  0.70974400  0.36409500  1
  C  3  1  0.07666300  0.65625600  0.29175300  1
  C  5  1  0.07670800  0.63739900  0.34523800  1
  C  7  1  0.07834900  0.64432000  0.24844900  1
  C  8  1  0.01306000  0.66911000  0.23398700  1
  C  9  1  0.01187700  0.65648900  0.19075000  1
  C  10  1  0.07986300  0.61953500  0.16126900  1
  C  11  1  0.14777200  0.59526300  0.17554300  1
  C  12  1  0.14528300  0.60713900  0.21854700  1
  C  13  1  0.07835000  0.75304800  0.39546700  1
  C  14  1  0.14526300  0.78295000  0.38818500  1
  C  15  1  0.14782400  0.82595100  0.41933000  1
  C  16  1  0.07992300  0.84022500  0.45787600  1
  C  17  1  0.01192800  0.81074200  0.46534300  1
  C  18  1  0.01309500  0.76750700  0.43472300  1
  C  19  1  0.07846500  0.60602900  0.35717200  1
  C  20  1  0.14544200  0.61331400  0.39434500  1
  C  21  1  0.14793400  0.58219000  0.40623100  1
  C  22  1  0.07996700  0.54365300  0.38197800  1
  C  23  1  0.01199700  0.53616900  0.34501900  1
  C  24  1  0.01324900  0.56676700  0.33237400  1
  C  43  1  0.95542900  0.29113300  0.64331400  1
  C  45  1  0.95545300  0.35408700  0.71036100  1
  C  47  1  0.95546500  0.35817500  0.64740200  1
  C  49  1  0.94933400  0.37424800  0.75505400  1
  C  50  1  0.99866800  0.35415500  0.77689900  1
  C  51  1  0.99053600  0.37406400  0.82120900  1
  C  52  1  0.93111700  0.41436200  0.84480200  1
  C  53  1  0.87945100  0.43412600  0.82312500  1
  C  54  1  0.89014000  0.41466200  0.77894900  1
  C  55  1  0.94934500  0.24643700  0.61878100  1
  C  56  1  0.89004000  0.22254300  0.63528300  1
  C  57  1  0.87944300  0.17836500  0.61057500  1
  C  58  1  0.93123100  0.15668200  0.56915000  1
  C  59  1  0.99073900  0.18027800  0.55245800  1
  C  60  1  0.99880900  0.22459000  0.57685600  1
  C  61  1  0.94937000  0.38271900  0.62725100  1
  C  62  1  0.89019400  0.36620300  0.58683500  1
  C  63  1  0.87946600  0.39092800  0.56738700  1
  C  64  1  0.93114700  0.43236900  0.58715600  1
  C  65  1  0.99059500  0.44906600  0.62745300  1
  C  66  1  0.99873800  0.42465000  0.64734500  1
  C  85  1  0.99056600  0.49854200  0.95875700  1
  C  86  1  0.87065400  0.50033400  0.98036800  1
  C  87  1  0.85922600  0.52824900  0.02471000  1
  C  88  1  0.96651800  0.55499700  0.04833800  1
  C  89  1  0.08352100  0.55393000  0.02617200  1
  C  90  1  0.09440000  0.52670600  0.98237900  1
  C  92  1  0.63542600  0.50379900  0.02326100  1
  C  93  1  0.64669800  0.47580600  0.97925200  1
  C  97  1  0.51368700  0.50642000  0.04753400  1
  C  98  1  0.38924900  0.48578200  0.01927800  1
  C  101  1  0.42402200  0.44273000  0.97998800  1
  C  104  1  0.53676200  0.44744100  0.95342900  1
  C  109  1  0.95468200  0.58241600  0.09517400  1
  C  112  1  0.01528200  0.47018400  0.91257500  1
  C  115  1  0.99061100  0.46218100  0.50300900  1
  C  116  1  0.87070900  0.48200300  0.50121700  1
  C  117  1  0.85928800  0.49842400  0.47329400  1
  C  118  1  0.96658700  0.49529700  0.44654600  1
  C  119  1  0.08359300  0.47420700  0.44762300  1
  C  120  1  0.09444400  0.45762700  0.47484000  1
  C  122  1  0.63549500  0.52143500  0.49774600  1
  C  123  1  0.64675900  0.50542400  0.52574300  1
  C  127  1  0.51375700  0.54308300  0.49511600  1
  C  128  1  0.38931900  0.53547800  0.51576300  1
  C  131  1  0.42409500  0.53925100  0.55882100  1
  C  134  1  0.53682700  0.50798000  0.55411500  1
  C  139  1  0.95476100  0.51470700  0.41912200  1
  C  142  1  0.01534600  0.44437200  0.53137900  1
  C  145  1  0.99066500  0.04274000  0.53941300  1
  C  146  1  0.87073300  0.02113700  0.51960500  1
  C  147  1  0.85929200  0.97679200  0.50317000  1
  C  148  1  0.96658600  0.95315900  0.50628400  1
  C  149  1  0.08358100  0.97532200  0.52739200  1
  C  150  1  0.09445100  0.01911900  0.54398000  1
  C  152  1  0.63549000  0.97825200  0.48018100  1
  C  153  1  0.64676900  0.02226400  0.49620700  1
  C  157  1  0.51374700  0.95398200  0.45852500  1
  C  158  1  0.38931900  0.98224200  0.46614200  1
  C  161  1  0.42410900  0.02153900  0.46239100  1
  C  164  1  0.53684600  0.04809000  0.49366400  1
  C  169  1  0.95474600  0.90632200  0.48685500  1
  C  172  1  0.01534100  0.08892700  0.55726600  1
  H  25  1  0.19652400  0.84701600  0.41332200  1
  H  26  1  0.19487200  0.77365300  0.36040300  1
  H  27  1  0.96161900  0.82069600  0.49310500  1
  H  28  1  0.96212600  0.74690200  0.44089300  1
  H  29  1  0.19497200  0.64111000  0.41284200  1
  H  30  1  0.19662300  0.58820500  0.43330700  1
  H  31  1  0.96213900  0.56060600  0.30562600  1
  H  32  1  0.96163600  0.50841400  0.32722700  1
  H  33  1  0.19492000  0.58865800  0.22784700  1
  H  34  1  0.19654800  0.56820600  0.15448200  1
  H  35  1  0.96155600  0.67429600  0.18079600  1
  H  36  1  0.96208400  0.69588300  0.25459000  1
  H  38  1  0.09949700  0.62933400  0.11210200  1
  H  40  1  0.09955200  0.48469000  0.37220100  1
  H  42  1  0.09955700  0.88939100  0.51684300  1
  H  67  1  0.83399700  0.16196600  0.62305400  1
  H  68  1  0.85043500  0.23710400  0.66510100  1
  H  69  1  0.02838800  0.16526900  0.52240900  1
  H  70  1  0.04299900  0.24065000  0.56380200  1
  H  71  1  0.85055500  0.33638800  0.57157400  1
  H  72  1  0.83405300  0.37845200  0.53850800  1
  H  73  1  0.04282500  0.43771800  0.67647800  1
  H  74  1  0.02813700  0.47912800  0.64250900  1
  H  75  1  0.85059000  0.42993100  0.76439200  1
  H  76  1  0.83408200  0.46301400  0.83952400  1
  H  77  1  0.02807200  0.35901000  0.83621800  1
  H  78  1  0.04276300  0.32502300  0.76084000  1
  H  80  1  0.92617000  0.41421200  0.90018800  1
  H  82  1  0.92605400  0.48791700  0.58733300  1
  H  84  1  0.92656400  0.10128300  0.51361800  1
  H  95  1  0.18138700  0.52704600  0.96781000  1
  H  96  1  0.16340800  0.57277900  0.04156000  1
  H  99  1  0.49085200  0.53960000  0.06968000  1
  H  100  1  0.53454600  0.49094600  0.06592500  1
  H  102  1  0.35071800  0.50694700  0.00875000  1
  H  103  1  0.31111800  0.48146200  0.03768200  1
  H  105  1  0.33501100  0.42947600  0.96037100  1
  H  106  1  0.45625000  0.42077500  0.99039000  1
  H  107  1  0.49475700  0.45996500  0.93429700  1
  H  108  1  0.57728000  0.41605900  0.93192700  1
  H  110  1  0.92401800  0.56181600  0.10746300  1
  H  111  1  0.87503800  0.60551000  0.10216700  1
  H  113  1  0.11443900  0.45590300  0.90837400  1
  H  114  1  0.01779300  0.49055800  0.89856900  1
  H  125  1  0.18146200  0.44273900  0.47451900  1
  H  126  1  0.16348500  0.47074100  0.42877600  1
  H  129  1  0.49091900  0.53203600  0.46193400  1
  H  130  1  0.53461500  0.57694800  0.51057900  1
  H  132  1  0.35077700  0.50377900  0.49460500  1
  H  133  1  0.31119300  0.55820100  0.52007700  1
  H  135  1  0.33508600  0.53289900  0.57208000  1
  H  136  1  0.45633100  0.57161100  0.58076400  1
  H  137  1  0.49481600  0.47632600  0.54160200  1
  H  138  1  0.57735400  0.51787100  0.58549800  1
  H  140  1  0.92412700  0.54760100  0.43971700  1
  H  141  1  0.87509900  0.49860700  0.39603300  1
  H  143  1  0.11445800  0.45449200  0.54568600  1
  H  144  1  0.01799600  0.40999000  0.51100500  1
  H  155  1  0.18146200  0.03368400  0.55887700  1
  H  156  1  0.16346800  0.95993200  0.53084600  1
  H  159  1  0.49089700  0.93183700  0.46955600  1
  H  160  1  0.53461000  0.93559300  0.42466100  1
  H  162  1  0.35077300  0.99277100  0.49783600  1
  H  163  1  0.31118900  0.96384200  0.44341400  1
  H  165  1  0.33510700  0.04115200  0.46875100  1
  H  166  1  0.45635000  0.01113300  0.43003300  1
  H  167  1  0.49483700  0.06722100  0.52531900  1
  H  168  1  0.57738300  0.06959400  0.48379100  1
  H  170  1  0.92409200  0.89403900  0.45396600  1
  H  171  1  0.87509400  0.89932500  0.50295100  1
  H  173  1  0.11458400  0.09315200  0.54725400  1
  H  174  1  0.01760900  0.10292700  0.59164700  1
  N  2  1  0.07675700  0.69764100  0.32235300  1
  N  4  1  0.07680800  0.62661500  0.30385400  1
  N  6  1  0.07680700  0.67914400  0.37488000  1
  N  37  1  0.07885000  0.60484300  0.11744300  1
  N  39  1  0.07892400  0.51453100  0.39668400  1
  N  41  1  0.07891000  0.88404900  0.48701100  1
  N  44  1  0.95490000  0.31126500  0.68623600  1
  N  46  1  0.95492500  0.37687500  0.69022400  1
  N  48  1  0.95492100  0.31525100  0.62461100  1
  N  79  1  0.91815700  0.43526900  0.88938100  1
  N  81  1  0.91814700  0.45605300  0.56626600  1
  N  83  1  0.91835300  0.11210200  0.54547900  1
  N  91  1  0.74242600  0.52831600  0.04381800  1
  N  94  1  0.76279900  0.47590300  0.96016000  1
  N  121  1  0.74249600  0.51746600  0.47322600  1
  N  124  1  0.76285500  0.48623800  0.52565300  1
  N  151  1  0.74248600  0.95768900  0.48413000  1
  N  154  1  0.76288400  0.04135100  0.51538900  1
