# generated using pymatgen
data_KZnH15C15O7
_symmetry_space_group_name_H-M   'P 1'
_cell_length_a   11.21497000
_cell_length_b   11.23272000
_cell_length_c   16.44448000
_cell_angle_alpha   89.77512000
_cell_angle_beta   89.70579000
_cell_angle_gamma   92.84044000
_symmetry_Int_Tables_number   1
_chemical_formula_structural   KZnH15C15O7
_chemical_formula_sum   'K4 Zn4 H60 C60 O28'
_cell_volume   2068.99655931
_cell_formula_units_Z   4
loop_
 _symmetry_equiv_pos_site_id
 _symmetry_equiv_pos_as_xyz
  1  'x, y, z'
loop_
 _atom_site_type_symbol
 _atom_site_label
 _atom_site_symmetry_multiplicity
 _atom_site_fract_x
 _atom_site_fract_y
 _atom_site_fract_z
 _atom_site_occupancy
  K  K1  1  0.06337000  0.84088000  0.05332000  1.0
  K  K2  1  0.15737000  0.93978000  0.44752000  1.0
  K  K3  1  0.93849000  0.15576000  0.94605000  1.0
  K  K4  1  0.83937000  0.06209000  0.55188000  1.0
  Zn  Zn1  1  0.97185000  0.02859000  0.74835000  1.0
  Zn  Zn2  1  0.02828000  0.97031000  0.25128000  1.0
  Zn  Zn3  1  0.99924000  0.50016000  0.99801000  1.0
  Zn  Zn4  1  0.50005000  0.99947000  0.49802000  1.0
  H  H1  1  0.28029000  0.83904000  0.80617000  1.0
  H  H2  1  0.25119000  0.69849000  0.85044000  1.0
  H  H3  1  0.39814000  0.74179000  0.81827000  1.0
  H  H4  1  0.42442000  0.56784000  0.02104000  1.0
  H  H5  1  0.40109000  0.59716000  0.91764000  1.0
  H  H6  1  0.36455000  0.61890000  0.13633000  1.0
  H  H7  1  0.37291000  0.74136000  0.20227000  1.0
  H  H8  1  0.50402000  0.69560000  0.15374000  1.0
  H  H9  1  0.27275000  0.16278000  0.99893000  1.0
  H  H10  1  0.41268000  0.17371000  0.04864000  1.0
  H  H11  1  0.27990000  0.12819000  0.10270000  1.0
  H  H12  1  0.32286000  0.12161000  0.89135000  1.0
  H  H13  1  0.35002000  0.00969000  0.82151000  1.0
  H  H14  1  0.45524000  0.91282000  0.20997000  1.0
  H  H15  1  0.42923000  0.05473000  0.17235000  1.0
  H  H16  1  0.16062000  0.71980000  0.69348000  1.0
  H  H17  1  0.30160000  0.74846000  0.64919000  1.0
  H  H18  1  0.25781000  0.60192000  0.68134000  1.0
  H  H19  1  0.43154000  0.57388000  0.47899000  1.0
  H  H20  1  0.40384000  0.60336000  0.58190000  1.0
  H  H21  1  0.38112000  0.63553000  0.36351000  1.0
  H  H22  1  0.25896000  0.62694000  0.29732000  1.0
  H  H23  1  0.30467000  0.49608000  0.34593000  1.0
  H  H24  1  0.83650000  0.72680000  0.50109000  1.0
  H  H25  1  0.82553000  0.58697000  0.45132000  1.0
  H  H26  1  0.87075000  0.71961000  0.39734000  1.0
  H  H27  1  0.87751000  0.67482000  0.60859000  1.0
  H  H28  1  0.99048000  0.65211000  0.67857000  1.0
  H  H29  1  0.08719000  0.54654000  0.28899000  1.0
  H  H30  1  0.94470000  0.57154000  0.32669000  1.0
  H  H31  1  0.71987000  0.16070000  0.19314000  1.0
  H  H32  1  0.74841000  0.30141000  0.14890000  1.0
  H  H33  1  0.60166000  0.25749000  0.18109000  1.0
  H  H34  1  0.57341000  0.43044000  0.97859000  1.0
  H  H35  1  0.60313000  0.40302000  0.08150000  1.0
  H  H36  1  0.63580000  0.38036000  0.86327000  1.0
  H  H37  1  0.62692000  0.25861000  0.79681000  1.0
  H  H38  1  0.49617000  0.30385000  0.84618000  1.0
  H  H39  1  0.72769000  0.83650000  0.00073000  1.0
  H  H40  1  0.58765000  0.82595000  0.95103000  1.0
  H  H41  1  0.72067000  0.87059000  0.89690000  1.0
  H  H42  1  0.67561000  0.87774000  0.10855000  1.0
  H  H43  1  0.65185000  0.99076000  0.17827000  1.0
  H  H44  1  0.54647000  0.08683000  0.78886000  1.0
  H  H45  1  0.57279000  0.94449000  0.82596000  1.0
  H  H46  1  0.83849000  0.27977000  0.30626000  1.0
  H  H47  1  0.69768000  0.25105000  0.35066000  1.0
  H  H48  1  0.74142000  0.39766000  0.31857000  1.0
  H  H49  1  0.56778000  0.42497000  0.52158000  1.0
  H  H50  1  0.59611000  0.39930000  0.41827000  1.0
  H  H51  1  0.61857000  0.36449000  0.63679000  1.0
  H  H52  1  0.74127000  0.37304000  0.70257000  1.0
  H  H53  1  0.69559000  0.50378000  0.65385000  1.0
  H  H54  1  0.16349000  0.27334000  0.49838000  1.0
  H  H55  1  0.17387000  0.41303000  0.54829000  1.0
  H  H56  1  0.12909000  0.28013000  0.60217000  1.0
  H  H57  1  0.12180000  0.32244000  0.39087000  1.0
  H  H58  1  0.00940000  0.34905000  0.32133000  1.0
  H  H59  1  0.91283000  0.45250000  0.71079000  1.0
  H  H60  1  0.05516000  0.42781000  0.67261000  1.0
  C  C1  1  0.31721000  0.77394000  0.84742000  1.0
  C  C2  1  0.34240000  0.82482000  0.93101000  1.0
  C  C3  1  0.36846000  0.74771000  0.99557000  1.0
  C  C4  1  0.36744000  0.61527000  0.97910000  1.0
  C  C5  1  0.24168000  0.55942000  0.98543000  1.0
  C  C6  1  0.40796000  0.70749000  0.14503000  1.0
  C  C7  1  0.38559000  0.79137000  0.07508000  1.0
  C  C8  1  0.37736000  0.91444000  0.08956000  1.0
  C  C9  1  0.34833000  0.99218000  0.02572000  1.0
  C  C10  1  0.33415000  0.94763000  0.94614000  1.0
  C  C11  1  0.32761000  0.12102000  0.04475000  1.0
  C  C12  1  0.30040000  0.02781000  0.87727000  1.0
  C  C13  1  0.16630000  0.01746000  0.85816000  1.0
  C  C14  1  0.27554000  0.96522000  0.22514000  1.0
  C  C15  1  0.39177000  0.96251000  0.17457000  1.0
  C  C16  1  0.22582000  0.68277000  0.65220000  1.0
  C  C17  1  0.17483000  0.65753000  0.56863000  1.0
  C  C18  1  0.25201000  0.63170000  0.50394000  1.0
  C  C19  1  0.38476000  0.63322000  0.51976000  1.0
  C  C20  1  0.44081000  0.75823000  0.51069000  1.0
  C  C21  1  0.29254000  0.59199000  0.35463000  1.0
  C  C22  1  0.20826000  0.61423000  0.42453000  1.0
  C  C23  1  0.08503000  0.62204000  0.41024000  1.0
  C  C24  1  0.00719000  0.65120000  0.47405000  1.0
  C  C25  1  0.05179000  0.66538000  0.55355000  1.0
  C  C26  1  0.87817000  0.67194000  0.45519000  1.0
  C  C27  1  0.97118000  0.69935000  0.62218000  1.0
  C  C28  1  0.97986000  0.83354000  0.63982000  1.0
  C  C29  1  0.03474000  0.72645000  0.27676000  1.0
  C  C30  1  0.03714000  0.60886000  0.32522000  1.0
  C  C31  1  0.68271000  0.22566000  0.15187000  1.0
  C  C32  1  0.65780000  0.17455000  0.06826000  1.0
  C  C33  1  0.63198000  0.25138000  0.00350000  1.0
  C  C34  1  0.63297000  0.38393000  0.01929000  1.0
  C  C35  1  0.75797000  0.44033000  0.01039000  1.0
  C  C36  1  0.59233000  0.29187000  0.85435000  1.0
  C  C37  1  0.61517000  0.20763000  0.92399000  1.0
  C  C38  1  0.62377000  0.08467000  0.90942000  1.0
  C  C39  1  0.65244000  0.00714000  0.97350000  1.0
  C  C40  1  0.66600000  0.05169000  0.05316000  1.0
  C  C41  1  0.67297000  0.87820000  0.95480000  1.0
  C  C42  1  0.69971000  0.97143000  0.12202000  1.0
  C  C43  1  0.83415000  0.98009000  0.13992000  1.0
  C  C44  1  0.72691000  0.03477000  0.77438000  1.0
  C  C45  1  0.60993000  0.03688000  0.82416000  1.0
  C  C46  1  0.77342000  0.31678000  0.34764000  1.0
  C  C47  1  0.82456000  0.34201000  0.43117000  1.0
  C  C48  1  0.74756000  0.36823000  0.49587000  1.0
  C  C49  1  0.61489000  0.36713000  0.47994000  1.0
  C  C50  1  0.55913000  0.24166000  0.48751000  1.0
  C  C51  1  0.70736000  0.40780000  0.64531000  1.0
  C  C52  1  0.79138000  0.38525000  0.57531000  1.0
  C  C53  1  0.91461000  0.37705000  0.58952000  1.0
  C  C54  1  0.99239000  0.34811000  0.52557000  1.0
  C  C55  1  0.94760000  0.33384000  0.44611000  1.0
  C  C56  1  0.12155000  0.32786000  0.54435000  1.0
  C  C57  1  0.02775000  0.29996000  0.37717000  1.0
  C  C58  1  0.01753000  0.16615000  0.35829000  1.0
  C  C59  1  0.96670000  0.27297000  0.72308000  1.0
  C  C60  1  0.96283000  0.39031000  0.67446000  1.0
  O  O1  1  0.15095000  0.61824000  0.99413000  1.0
  O  O2  1  0.23726000  0.44116000  0.98055000  1.0
  O  O3  1  0.09180000  0.98809000  0.91316000  1.0
  O  O4  1  0.14046000  0.04266000  0.78423000  1.0
  O  O5  1  0.17732000  0.95869000  0.18349000  1.0
  O  O6  1  0.11834000  0.38370000  0.98820000  1.0
  O  O7  1  0.28391000  0.97534000  0.30065000  1.0
  O  O8  1  0.38192000  0.84849000  0.50039000  1.0
  O  O9  1  0.55923000  0.76260000  0.51576000  1.0
  O  O10  1  0.00604000  0.90737000  0.58372000  1.0
  O  O11  1  0.95733000  0.86006000  0.71411000  1.0
  O  O12  1  0.04123000  0.82330000  0.31984000  1.0
  O  O13  1  0.61703000  0.88119000  0.50792000  1.0
  O  O14  1  0.02464000  0.72131000  0.20120000  1.0
  O  O15  1  0.84868000  0.38188000  0.00016000  1.0
  O  O16  1  0.76185000  0.55848000  0.01612000  1.0
  O  O17  1  0.90806000  0.00601000  0.08378000  1.0
  O  O18  1  0.86036000  0.95734000  0.21422000  1.0
  O  O19  1  0.82409000  0.04125000  0.81701000  1.0
  O  O20  1  0.88075000  0.61654000  0.01127000  1.0
  O  O21  1  0.72120000  0.02490000  0.69875000  1.0
  O  O22  1  0.61789000  0.15148000  0.49847000  1.0
  O  O23  1  0.44095000  0.23685000  0.48058000  1.0
  O  O24  1  0.98821000  0.09175000  0.41330000  1.0
  O  O25  1  0.04282000  0.13999000  0.28440000  1.0
  O  O26  1  0.96358000  0.17629000  0.67988000  1.0
  O  O27  1  0.38338000  0.11805000  0.48804000  1.0
  O  O28  1  0.97530000  0.27855000  0.79873000  1.0
