# generated using pymatgen
data_GdH11C27N7O19
_symmetry_space_group_name_H-M   'P 1'
_cell_length_a   14.54017000
_cell_length_b   16.76125000
_cell_length_c   19.61942000
_cell_angle_alpha   104.86859000
_cell_angle_beta   96.42218000
_cell_angle_gamma   94.53310000
_symmetry_Int_Tables_number   1
_chemical_formula_structural   GdH11C27N7O19
_chemical_formula_sum   'Gd4 H44 C108 N28 O76'
_cell_volume   4563.39351722
_cell_formula_units_Z   4
loop_
 _symmetry_equiv_pos_site_id
 _symmetry_equiv_pos_as_xyz
  1  'x, y, z'
loop_
 _atom_site_type_symbol
 _atom_site_label
 _atom_site_symmetry_multiplicity
 _atom_site_fract_x
 _atom_site_fract_y
 _atom_site_fract_z
 _atom_site_occupancy
  Gd  Gd0  1  0.88167000  0.95601000  0.93772000  1
  Gd  Gd1  1  0.36620000  0.45931000  0.49423000  1
  Gd  Gd2  1  0.11833000  0.04399000  0.06228000  1
  Gd  Gd3  1  0.63380000  0.54069000  0.50578000  1
  H  H4  1  0.91834000  0.13060000  0.81487000  1
  H  H5  1  0.17252000  0.24343000  0.95209000  1
  H  H6  1  0.24545000  0.23957000  0.58638000  1
  H  H7  1  0.14346000  0.47441000  0.67237000  1
  H  H8  1  0.78178000  0.10400000  0.06608000  1
  H  H9  1  0.93577000  0.08577000  0.26230000  1
  H  H10  1  0.65940000  0.39865000  0.37513000  1
  H  H11  1  0.44481000  0.19185000  0.33941000  1
  H  H12  1  0.71760000  0.43292000  0.67852000  1
  H  H13  1  0.42708000  0.35983000  0.68048000  1
  H  H14  1  0.71054000  0.02897000  0.74984000  1
  H  H15  1  0.69127000  0.19143000  0.95584000  1
  H  H16  1  0.71067000  0.85335000  0.79959000  1
  H  H17  1  0.65100000  0.71574000  0.71433000  1
  H  H18  1  0.71190000  0.58673000  0.73642000  1
  H  H19  1  0.88943000  0.74556000  0.91993000  1
  H  H20  1  0.90191000  0.59619000  0.89009000  1
  H  H21  1  0.37896000  0.65235000  0.47058000  1
  H  H22  1  0.29984000  0.77515000  0.45970000  1
  H  H23  1  0.12773000  0.77105000  0.46740000  1
  H  H24  1  0.13428000  0.52508000  0.49793000  1
  H  H25  1  0.98902000  0.70431000  0.48385000  1
  H  H26  1  0.08166000  0.86940000  0.18513000  1
  H  H27  1  0.82748000  0.75657000  0.04791000  1
  H  H28  1  0.75455000  0.76043000  0.41363000  1
  H  H29  1  0.85654000  0.52559000  0.32763000  1
  H  H30  1  0.21822000  0.89600000  0.93392000  1
  H  H31  1  0.06423000  0.91423000  0.73770000  1
  H  H32  1  0.34060000  0.60135000  0.62488000  1
  H  H33  1  0.55519000  0.80815000  0.66059000  1
  H  H34  1  0.28240000  0.56708000  0.32148000  1
  H  H35  1  0.57292000  0.64017000  0.31952000  1
  H  H36  1  0.28946000  0.97103000  0.25017000  1
  H  H37  1  0.30873000  0.80857000  0.04416000  1
  H  H38  1  0.28933000  0.14665000  0.20042000  1
  H  H39  1  0.34900000  0.28427000  0.28567000  1
  H  H40  1  0.28811000  0.41327000  0.26358000  1
  H  H41  1  0.11057000  0.25445000  0.08008000  1
  H  H42  1  0.09809000  0.40381000  0.10991000  1
  H  H43  1  0.62104000  0.34766000  0.52942000  1
  H  H44  1  0.70016000  0.22485000  0.54031000  1
  H  H45  1  0.87228000  0.22895000  0.53260000  1
  H  H46  1  0.86572000  0.47492000  0.50207000  1
  H  H47  1  0.01098000  0.29569000  0.51616000  1
  C  C48  1  0.02160000  0.12987000  0.93886000  1
  C  C49  1  0.04247000  0.18156000  0.88958000  1
  C  C50  1  0.98309000  0.17154000  0.82623000  1
  C  C51  1  0.00891000  0.21129000  0.77603000  1
  C  C52  1  0.09283000  0.26420000  0.78720000  1
  C  C53  1  0.14804000  0.27614000  0.85368000  1
  C  C54  1  0.12496000  0.23499000  0.90335000  1
  C  C55  1  0.12734000  0.29765000  0.73002000  1
  C  C56  1  0.17548000  0.24938000  0.67869000  1
  C  C57  1  0.21003000  0.27945000  0.62559000  1
  C  C58  1  0.20076000  0.36130000  0.62391000  1
  C  C59  1  0.15225000  0.41079000  0.67323000  1
  C  C60  1  0.11505000  0.37821000  0.72393000  1
  C  C61  1  0.24549000  0.39641000  0.57130000  1
  C  C62  1  0.94997000  0.07100000  0.12294000  1
  C  C63  1  0.86716000  0.09014000  0.15970000  1
  C  C64  1  0.78722000  0.10823000  0.12277000  1
  C  C65  1  0.71542000  0.13691000  0.16012000  1
  C  C66  1  0.71838000  0.14696000  0.23366000  1
  C  C67  1  0.79882000  0.12477000  0.26817000  1
  C  C68  1  0.87314000  0.09824000  0.23281000  1
  C  C69  1  0.65438000  0.19775000  0.27587000  1
  C  C70  1  0.68311000  0.28253000  0.30733000  1
  C  C71  1  0.63135000  0.33401000  0.35178000  1
  C  C72  1  0.54505000  0.30150000  0.36390000  1
  C  C73  1  0.51203000  0.21813000  0.33098000  1
  C  C74  1  0.56681000  0.16809000  0.28866000  1
  C  C75  1  0.48785000  0.35390000  0.41205000  1
  C  C76  1  0.54252000  0.45235000  0.62255000  1
  C  C77  1  0.56882000  0.40297000  0.67380000  1
  C  C78  1  0.66266000  0.39712000  0.69465000  1
  C  C79  1  0.68644000  0.34285000  0.73470000  1
  C  C80  1  0.61964000  0.29190000  0.75589000  1
  C  C81  1  0.52588000  0.30203000  0.73615000  1
  C  C82  1  0.50035000  0.35597000  0.69586000  1
  C  C83  1  0.64721000  0.22630000  0.79075000  1
  C  C84  1  0.66510000  0.14769000  0.75053000  1
  C  C85  1  0.69527000  0.08779000  0.78260000  1
  C  C86  1  0.70660000  0.10293000  0.85652000  1
  C  C87  1  0.68525000  0.17836000  0.89818000  1
  C  C88  1  0.65718000  0.23831000  0.86516000  1
  C  C89  1  0.74598000  0.03863000  0.88775000  1
  C  C90  1  0.73603000  0.79644000  0.80719000  1
  C  C91  1  0.70227000  0.71930000  0.76010000  1
  C  C92  1  0.73661000  0.64821000  0.77158000  1
  C  C93  1  0.80530000  0.65685000  0.83003000  1
  C  C94  1  0.83605000  0.73646000  0.87415000  1
  C  C95  1  0.84417000  0.58324000  0.84541000  1
  C  C96  1  0.30478000  0.65221000  0.47349000  1
  C  C97  1  0.26055000  0.72121000  0.46798000  1
  C  C98  1  0.16538000  0.71863000  0.47227000  1
  C  C99  1  0.11866000  0.64738000  0.48286000  1
  C  C100  1  0.16913000  0.58046000  0.48840000  1
  C  C101  1  0.01770000  0.64616000  0.48853000  1
  C  C102  1  0.97840000  0.87013000  0.06115000  1
  C  C103  1  0.95754000  0.81844000  0.11042000  1
  C  C104  1  0.01691000  0.82847000  0.17377000  1
  C  C105  1  0.99109000  0.78871000  0.22397000  1
  C  C106  1  0.90717000  0.73580000  0.21280000  1
  C  C107  1  0.85196000  0.72386000  0.14632000  1
  C  C108  1  0.87504000  0.76501000  0.09665000  1
  C  C109  1  0.87266000  0.70235000  0.26998000  1
  C  C110  1  0.82452000  0.75063000  0.32131000  1
  C  C111  1  0.78997000  0.72055000  0.37441000  1
  C  C112  1  0.79924000  0.63871000  0.37610000  1
  C  C113  1  0.84775000  0.58921000  0.32678000  1
  C  C114  1  0.88495000  0.62179000  0.27608000  1
  C  C115  1  0.75451000  0.60359000  0.42870000  1
  C  C116  1  0.05004000  0.92900000  0.87706000  1
  C  C117  1  0.13284000  0.90986000  0.84030000  1
  C  C118  1  0.21278000  0.89177000  0.87723000  1
  C  C119  1  0.28458000  0.86309000  0.83988000  1
  C  C120  1  0.28162000  0.85304000  0.76634000  1
  C  C121  1  0.20118000  0.87523000  0.73183000  1
  C  C122  1  0.12686000  0.90176000  0.76719000  1
  C  C123  1  0.34562000  0.80225000  0.72413000  1
  C  C124  1  0.31689000  0.71747000  0.69268000  1
  C  C125  1  0.36865000  0.66599000  0.64822000  1
  C  C126  1  0.45496000  0.69850000  0.63611000  1
  C  C127  1  0.48797000  0.78187000  0.66903000  1
  C  C128  1  0.43319000  0.83191000  0.71134000  1
  C  C129  1  0.51215000  0.64610000  0.58796000  1
  C  C130  1  0.45748000  0.54765000  0.37746000  1
  C  C131  1  0.43118000  0.59703000  0.32621000  1
  C  C132  1  0.33734000  0.60288000  0.30535000  1
  C  C133  1  0.31356000  0.65716000  0.26530000  1
  C  C134  1  0.38037000  0.70810000  0.24412000  1
  C  C135  1  0.47413000  0.69798000  0.26385000  1
  C  C136  1  0.49965000  0.64403000  0.30415000  1
  C  C137  1  0.35279000  0.77370000  0.20926000  1
  C  C138  1  0.33490000  0.85231000  0.24947000  1
  C  C139  1  0.30473000  0.91221000  0.21741000  1
  C  C140  1  0.29340000  0.89707000  0.14349000  1
  C  C141  1  0.31476000  0.82164000  0.10182000  1
  C  C142  1  0.34283000  0.76169000  0.13485000  1
  C  C143  1  0.25402000  0.96137000  0.11225000  1
  C  C144  1  0.26397000  0.20356000  0.19281000  1
  C  C145  1  0.29773000  0.28070000  0.23990000  1
  C  C146  1  0.26340000  0.35179000  0.22842000  1
  C  C147  1  0.19470000  0.34315000  0.16997000  1
  C  C148  1  0.16395000  0.26354000  0.12586000  1
  C  C149  1  0.15583000  0.41676000  0.15459000  1
  C  C150  1  0.69522000  0.34779000  0.52651000  1
  C  C151  1  0.73945000  0.27880000  0.53202000  1
  C  C152  1  0.83462000  0.28137000  0.52773000  1
  C  C153  1  0.88134000  0.35262000  0.51714000  1
  C  C154  1  0.83087000  0.41954000  0.51160000  1
  C  C155  1  0.98231000  0.35384000  0.51147000  1
  N  N156  1  0.94555000  0.19259000  0.70833000  1
  N  N157  1  0.23641000  0.33157000  0.87319000  1
  N  N158  1  0.18772000  0.16170000  0.67685000  1
  N  N159  1  0.06356000  0.43307000  0.77450000  1
  N  N160  1  0.63783000  0.16445000  0.12006000  1
  N  N161  1  0.80878000  0.13369000  0.34577000  1
  N  N162  1  0.77358000  0.32070000  0.29549000  1
  N  N163  1  0.53047000  0.08030000  0.25642000  1
  N  N164  1  0.78614000  0.33548000  0.75084000  1
  N  N165  1  0.44939000  0.25325000  0.75621000  1
  N  N166  1  0.65112000  0.12331000  0.67157000  1
  N  N167  1  0.63885000  0.31827000  0.91191000  1
  N  N168  1  0.80216000  0.80591000  0.86394000  1
  N  N169  1  0.26096000  0.58208000  0.48323000  1
  N  N170  1  0.05445000  0.80741000  0.29168000  1
  N  N171  1  0.76360000  0.66843000  0.12682000  1
  N  N172  1  0.81228000  0.83830000  0.32316000  1
  N  N173  1  0.93644000  0.56693000  0.22550000  1
  N  N174  1  0.36217000  0.83555000  0.87994000  1
  N  N175  1  0.19122000  0.86632000  0.65423000  1
  N  N176  1  0.22642000  0.67930000  0.70451000  1
  N  N177  1  0.46953000  0.91970000  0.74359000  1
  N  N178  1  0.21386000  0.66452000  0.24917000  1
  N  N179  1  0.55061000  0.74675000  0.24380000  1
  N  N180  1  0.34888000  0.87669000  0.32844000  1
  N  N181  1  0.36115000  0.68173000  0.08809000  1
  N  N182  1  0.19785000  0.19409000  0.13606000  1
  N  N183  1  0.73904000  0.41792000  0.51677000  1
  O  O184  1  0.94544000  0.08295000  0.92256000  1
  O  O185  1  0.08360000  0.13475000  0.99217000  1
  O  O186  1  0.27271000  0.34729000  0.51784000  1
  O  O187  1  0.25962000  0.47546000  0.58252000  1
  O  O188  1  0.86612000  0.15881000  0.70682000  1
  O  O189  1  0.97544000  0.21075000  0.65663000  1
  O  O190  1  0.29743000  0.31410000  0.91457000  1
  O  O191  1  0.24233000  0.39245000  0.84830000  1
  O  O192  1  0.18453000  0.13970000  0.73247000  1
  O  O193  1  0.19986000  0.11547000  0.61905000  1
  O  O194  1  0.03224000  0.40493000  0.82094000  1
  O  O195  1  0.05546000  0.50364000  0.76748000  1
  O  O196  1  0.93971000  0.04317000  0.05453000  1
  O  O197  1  0.02996000  0.08570000  0.15926000  1
  O  O198  1  0.52840000  0.42003000  0.45843000  1
  O  O199  1  0.40160000  0.33313000  0.40791000  1
  O  O200  1  0.65681000  0.19420000  0.07117000  1
  O  O201  1  0.55922000  0.15541000  0.13805000  1
  O  O202  1  0.88908000  0.14275000  0.37760000  1
  O  O203  1  0.73644000  0.13134000  0.37362000  1
  O  O204  1  0.79125000  0.30646000  0.23342000  1
  O  O205  1  0.82407000  0.36477000  0.34905000  1
  O  O206  1  0.58748000  0.03044000  0.23871000  1
  O  O207  1  0.44471000  0.06326000  0.24912000  1
  O  O208  1  0.60724000  0.50000000  0.60950000  1
  O  O209  1  0.45797000  0.43995000  0.59330000  1
  O  O210  1  0.75872000  0.04751000  0.95509000  1
  O  O211  1  0.77296000  0.97618000  0.84502000  1
  O  O212  1  0.83790000  0.35070000  0.70853000  1
  O  O213  1  0.81130000  0.31336000  0.80499000  1
  O  O214  1  0.46743000  0.19136000  0.77675000  1
  O  O215  1  0.37101000  0.27744000  0.75076000  1
  O  O216  1  0.63793000  0.17824000  0.64030000  1
  O  O217  1  0.65292000  0.04920000  0.64108000  1
  O  O218  1  0.63347000  0.37771000  0.88507000  1
  O  O219  1  0.63072000  0.32113000  0.97448000  1
  O  O220  1  0.81489000  0.51195000  0.81151000  1
  O  O221  1  0.96776000  0.58823000  0.49732000  1
  O  O222  1  0.05456000  0.91705000  0.07744000  1
  O  O223  1  0.91640000  0.86525000  0.00783000  1
  O  O224  1  0.72730000  0.65271000  0.48216000  1
  O  O225  1  0.74038000  0.52454000  0.41749000  1
  O  O226  1  0.13388000  0.84119000  0.29318000  1
  O  O227  1  0.02456000  0.78925000  0.34337000  1
  O  O228  1  0.70257000  0.68590000  0.08544000  1
  O  O229  1  0.75768000  0.60755000  0.15170000  1
  O  O230  1  0.81547000  0.86031000  0.26754000  1
  O  O231  1  0.80014000  0.88453000  0.38095000  1
  O  O232  1  0.96776000  0.59507000  0.17906000  1
  O  O233  1  0.94454000  0.49636000  0.23252000  1
  O  O234  1  0.06029000  0.95684000  0.94547000  1
  O  O235  1  0.97004000  0.91430000  0.84074000  1
  O  O236  1  0.47160000  0.57997000  0.54157000  1
  O  O237  1  0.59840000  0.66687000  0.59209000  1
  O  O238  1  0.34319000  0.80580000  0.92883000  1
  O  O239  1  0.44078000  0.84459000  0.86195000  1
  O  O240  1  0.11092000  0.85725000  0.62240000  1
  O  O241  1  0.26356000  0.86866000  0.62638000  1
  O  O242  1  0.20876000  0.69354000  0.76658000  1
  O  O243  1  0.17593000  0.63524000  0.65095000  1
  O  O244  1  0.41253000  0.96956000  0.76130000  1
  O  O245  1  0.55529000  0.93674000  0.75088000  1
  O  O246  1  0.39276000  0.50000000  0.39050000  1
  O  O247  1  0.54203000  0.56005000  0.40670000  1
  O  O248  1  0.24128000  0.95249000  0.04491000  1
  O  O249  1  0.22704000  0.02382000  0.15498000  1
  O  O250  1  0.16210000  0.64931000  0.29147000  1
  O  O251  1  0.18870000  0.68664000  0.19501000  1
  O  O252  1  0.53257000  0.80864000  0.22326000  1
  O  O253  1  0.62899000  0.72256000  0.24924000  1
  O  O254  1  0.36207000  0.82176000  0.35970000  1
  O  O255  1  0.34708000  0.95081000  0.35893000  1
  O  O256  1  0.36653000  0.62230000  0.11493000  1
  O  O257  1  0.36928000  0.67887000  0.02552000  1
  O  O258  1  0.18511000  0.48805000  0.18850000  1
  O  O259  1  0.03224000  0.41177000  0.50268000  1
