# generated using pymatgen
data_Zn2H16C25O7
_symmetry_space_group_name_H-M   'P 1'
_cell_length_a   16.43788000
_cell_length_b   19.02219000
_cell_length_c   36.84084000
_cell_angle_alpha   91.54672000
_cell_angle_beta   91.73837000
_cell_angle_gamma   107.43681000
_symmetry_Int_Tables_number   1
_chemical_formula_structural   Zn2H16C25O7
_chemical_formula_sum   'Zn24 H192 C300 O84'
_cell_volume   10977.28765207
_cell_formula_units_Z   12
loop_
 _symmetry_equiv_pos_site_id
 _symmetry_equiv_pos_as_xyz
  1  'x, y, z'
loop_
 _atom_site_type_symbol
 _atom_site_label
 _atom_site_symmetry_multiplicity
 _atom_site_fract_x
 _atom_site_fract_y
 _atom_site_fract_z
 _atom_site_occupancy
  Zn  Zn0  1  0.33374000  0.56165000  0.10149000  1
  Zn  Zn1  1  0.51754000  0.69595000  0.08454000  1
  Zn  Zn2  1  0.37238000  0.73011000  0.12115000  1
  Zn  Zn3  1  0.19815000  0.59746000  0.14854000  1
  Zn  Zn4  1  0.43415000  0.66877000  0.43466000  1
  Zn  Zn5  1  0.33071000  0.51161000  0.47658000  1
  Zn  Zn6  1  0.23427000  0.59788000  0.43576000  1
  Zn  Zn7  1  0.32957000  0.74536000  0.39036000  1
  Zn  Zn8  1  0.92400000  0.92494000  0.28527000  1
  Zn  Zn9  1  0.96440000  0.01676000  0.20735000  1
  Zn  Zn10  1  0.07173000  0.07127000  0.27710000  1
  Zn  Zn11  1  0.99903000  0.00126000  0.35742000  1
  Zn  Zn12  1  0.71137000  0.32951000  0.59624000  1
  Zn  Zn13  1  0.52737000  0.21287000  0.55827000  1
  Zn  Zn14  1  0.64404000  0.15837000  0.60777000  1
  Zn  Zn15  1  0.80461000  0.28018000  0.65946000  1
  Zn  Zn16  1  0.72828000  0.19530000  0.94279000  1
  Zn  Zn17  1  0.86419000  0.32859000  0.89191000  1
  Zn  Zn18  1  0.73052000  0.36296000  0.93937000  1
  Zn  Zn19  1  0.60758000  0.23587000  0.99637000  1
  Zn  Zn20  1  0.14356000  0.98836000  0.78926000  1
  Zn  Zn21  1  0.10063000  0.87094000  0.71270000  1
  Zn  Zn22  1  0.98235000  0.85553000  0.77815000  1
  Zn  Zn23  1  0.06844000  0.92429000  0.86145000  1
  H  H24  1  0.36599000  0.67803000  0.05751000  1
  H  H25  1  0.35390000  0.61490000  0.16529000  1
  H  H26  1  0.32763000  0.64015000  0.49030000  1
  H  H27  1  0.34111000  0.61641000  0.37888000  1
  H  H28  1  0.91501000  0.06210000  0.26725000  1
  H  H29  1  0.07445000  0.94837000  0.30888000  1
  H  H30  1  0.67992000  0.21462000  0.54748000  1
  H  H31  1  0.65094000  0.27348000  0.65301000  1
  H  H32  1  0.70506000  0.27585000  0.88661000  1
  H  H33  1  0.76497000  0.28540000  0.99379000  1
  H  H34  1  0.12940000  0.84514000  0.77787000  1
  H  H35  1  0.00203000  0.98155000  0.81235000  1
  H  H36  1  0.45657000  0.98140000  0.93702000  1
  H  H37  1  0.34341000  0.09486000  0.83496000  1
  H  H38  1  0.29913000  0.71069000  0.87073000  1
  H  H39  1  0.19708000  0.68146000  0.92037000  1
  H  H40  1  0.17373000  0.78226000  0.95872000  1
  H  H41  1  0.25097000  0.91251000  0.94714000  1
  H  H42  1  0.37809000  0.84059000  0.85935000  1
  H  H43  1  0.56487000  0.14713000  0.82584000  1
  H  H44  1  0.63745000  0.27243000  0.80503000  1
  H  H45  1  0.42278000  0.23891000  0.89991000  1
  H  H46  1  0.49775000  0.36409000  0.87991000  1
  H  H47  1  0.60557000  0.38102000  0.83265000  1
  H  H48  1  0.04544000  0.67403000  0.85422000  1
  H  H49  1  0.73307000  0.55616000  0.86234000  1
  H  H50  1  0.15852000  0.49632000  0.91796000  1
  H  H51  1  0.16839000  0.41598000  0.86520000  1
  H  H52  1  0.07745000  0.40973000  0.80952000  1
  H  H53  1  0.97499000  0.48209000  0.80680000  1
  H  H54  1  0.05586000  0.56854000  0.91570000  1
  H  H55  1  0.83672000  0.76489000  0.90690000  1
  H  H56  1  0.73678000  0.83927000  0.91130000  1
  H  H57  1  0.69649000  0.65096000  0.81092000  1
  H  H58  1  0.59329000  0.72181000  0.81750000  1
  H  H59  1  0.61524000  0.81798000  0.86660000  1
  H  H60  1  0.04449000  0.18993000  0.95440000  1
  H  H61  1  0.01858000  0.12022000  0.82262000  1
  H  H62  1  0.27638000  0.06230000  0.98587000  1
  H  H63  1  0.38702000  0.18403000  0.99225000  1
  H  H64  1  0.36667000  0.29095000  0.96023000  1
  H  H65  1  0.23871000  0.27550000  0.92006000  1
  H  H66  1  0.14394000  0.04794000  0.94874000  1
  H  H67  1  0.81509000  0.04298000  0.85131000  1
  H  H68  1  0.69117000  0.04667000  0.81227000  1
  H  H69  1  0.93502000  0.27396000  0.83471000  1
  H  H70  1  0.81076000  0.27680000  0.79570000  1
  H  H71  1  0.69033000  0.16270000  0.78342000  1
  H  H72  1  0.96384000  0.48428000  0.69921000  1
  H  H73  1  0.81442000  0.67525000  0.68924000  1
  H  H74  1  0.26664000  0.65154000  0.70987000  1
  H  H75  1  0.28199000  0.67248000  0.77679000  1
  H  H76  1  0.15369000  0.65583000  0.81319000  1
  H  H77  1  0.00998000  0.62088000  0.78267000  1
  H  H78  1  0.12325000  0.61525000  0.67912000  1
  H  H79  1  0.65995000  0.46464000  0.70006000  1
  H  H80  1  0.51698000  0.43091000  0.66907000  1
  H  H81  1  0.75903000  0.61930000  0.61692000  1
  H  H82  1  0.61456000  0.58869000  0.58777000  1
  H  H83  1  0.49424000  0.49263000  0.61289000  1
  H  H84  1  0.48883000  0.10287000  0.70063000  1
  H  H85  1  0.20652000  0.13660000  0.67080000  1
  H  H86  1  0.32258000  0.82819000  0.74335000  1
  H  H87  1  0.42538000  0.86798000  0.79595000  1
  H  H88  1  0.48951000  0.00100000  0.81191000  1
  H  H89  1  0.45114000  0.09456000  0.77537000  1
  H  H90  1  0.28940000  0.92109000  0.70472000  1
  H  H91  1  0.36489000  0.31017000  0.65682000  1
  H  H92  1  0.34905000  0.38546000  0.60479000  1
  H  H93  1  0.28380000  0.11427000  0.58694000  1
  H  H94  1  0.26929000  0.19037000  0.53507000  1
  H  H95  1  0.30135000  0.32572000  0.54396000  1
  H  H96  1  0.70957000  0.01126000  0.68102000  1
  H  H97  1  0.01807000  0.03408000  0.67474000  1
  H  H98  1  0.60869000  0.85518000  0.78108000  1
  H  H99  1  0.58425000  0.73115000  0.75182000  1
  H  H100  1  0.66821000  0.71504000  0.69922000  1
  H  H101  1  0.77270000  0.82327000  0.67414000  1
  H  H102  1  0.71429000  0.96381000  0.75673000  1
  H  H103  1  0.89516000  0.06533000  0.58253000  1
  H  H104  1  0.98884000  0.14207000  0.53802000  1
  H  H105  1  0.05886000  0.19173000  0.67009000  1
  H  H106  1  0.15248000  0.26713000  0.62521000  1
  H  H107  1  0.11847000  0.24145000  0.55927000  1
  H  H108  1  0.94946000  0.50562000  0.56696000  1
  H  H109  1  0.97133000  0.47535000  0.49260000  1
  H  H110  1  0.12425000  0.52071000  0.58227000  1
  H  H111  1  0.07976000  0.36819000  0.59627000  1
  H  H112  1  0.10197000  0.33808000  0.52132000  1
  H  H113  1  0.92739000  0.32256000  0.50634000  1
  H  H114  1  0.29104000  0.88760000  0.50572000  1
  H  H115  1  0.40425000  0.02261000  0.48306000  1
  H  H116  1  0.38716000  0.90596000  0.57283000  1
  H  H117  1  0.49101000  0.82654000  0.54182000  1
  H  H118  1  0.60342000  0.96042000  0.51891000  1
  H  H119  1  0.50804000  0.94308000  0.45219000  1
  H  H120  1  0.41723000  0.39009000  0.46984000  1
  H  H121  1  0.43998000  0.43332000  0.54404000  1
  H  H122  1  0.56990000  0.35313000  0.47184000  1
  H  H123  1  0.66231000  0.49936000  0.45427000  1
  H  H124  1  0.68603000  0.53894000  0.52997000  1
  H  H125  1  0.53206000  0.57839000  0.52662000  1
  H  H126  1  0.90987000  0.69809000  0.33939000  1
  H  H127  1  0.10002000  0.80105000  0.44777000  1
  H  H128  1  0.08921000  0.50507000  0.31252000  1
  H  H129  1  0.97644000  0.40267000  0.33784000  1
  H  H130  1  0.87500000  0.42967000  0.38053000  1
  H  H131  1  0.88608000  0.55893000  0.39803000  1
  H  H132  1  0.10080000  0.63462000  0.32963000  1
  H  H133  1  0.11122000  0.95540000  0.41366000  1
  H  H134  1  0.08954000  0.06534000  0.44452000  1
  H  H135  1  0.87708000  0.81975000  0.45620000  1
  H  H136  1  0.85519000  0.93022000  0.48634000  1
  H  H137  1  0.96082000  0.05311000  0.48019000  1
  H  H138  1  0.22484000  0.27175000  0.32580000  1
  H  H139  1  0.04038000  0.35738000  0.40991000  1
  H  H140  1  0.50683000  0.45066000  0.36230000  1
  H  H141  1  0.50694000  0.55729000  0.32499000  1
  H  H142  1  0.37010000  0.57302000  0.30241000  1
  H  H143  1  0.23319000  0.48150000  0.31614000  1
  H  H144  1  0.37019000  0.35975000  0.37710000  1
  H  H145  1  0.99267000  0.18826000  0.43584000  1
  H  H146  1  0.84412000  0.11209000  0.44513000  1
  H  H147  1  0.91544000  0.24258000  0.32998000  1
  H  H148  1  0.76687000  0.16826000  0.34012000  1
  H  H149  1  0.73100000  0.10271000  0.39754000  1
  H  H150  1  0.80316000  0.93752000  0.40097000  1
  H  H151  1  0.52521000  0.89245000  0.33386000  1
  H  H152  1  0.72919000  0.66533000  0.44559000  1
  H  H153  1  0.69102000  0.69764000  0.50711000  1
  H  H154  1  0.64923000  0.81131000  0.51755000  1
  H  H155  1  0.64361000  0.89179000  0.46640000  1
  H  H156  1  0.72397000  0.74558000  0.39426000  1
  H  H157  1  0.58112000  0.06078000  0.35015000  1
  H  H158  1  0.55309000  0.14826000  0.30646000  1
  H  H159  1  0.70549000  0.97230000  0.26726000  1
  H  H160  1  0.67727000  0.05963000  0.22381000  1
  H  H161  1  0.60120000  0.14788000  0.24332000  1
  H  H162  1  0.48631000  0.00163000  0.00860000  1
  H  H163  1  0.46800000  0.99086000  0.08476000  1
  H  H164  1  0.54306000  0.87503000  0.00744000  1
  H  H165  1  0.71427000  0.96719000  0.01878000  1
  H  H166  1  0.69561000  0.95597000  0.09518000  1
  H  H167  1  0.63863000  0.08269000  0.09622000  1
  H  H168  1  0.06933000  0.40427000  0.05152000  1
  H  H169  1  0.07685000  0.41242000  0.97502000  1
  H  H170  1  0.90945000  0.43266000  0.04810000  1
  H  H171  1  0.99540000  0.58637000  0.05624000  1
  H  H172  1  0.00222000  0.59424000  0.97944000  1
  H  H173  1  0.16238000  0.56588000  0.98292000  1
  H  H174  1  0.45414000  0.31466000  0.03289000  1
  H  H175  1  0.36365000  0.41821000  0.02004000  1
  H  H176  1  0.57475000  0.42249000  0.07815000  1
  H  H177  1  0.67419000  0.47026000  0.01668000  1
  H  H178  1  0.58398000  0.57319000  0.00341000  1
  H  H179  1  0.46324000  0.46569000  0.95842000  1
  H  H180  1  0.17939000  0.87133000  0.26072000  1
  H  H181  1  0.25298000  0.89872000  0.13093000  1
  H  H182  1  0.07317000  0.59354000  0.25952000  1
  H  H183  1  0.20549000  0.55680000  0.26385000  1
  H  H184  1  0.34342000  0.64437000  0.24766000  1
  H  H185  1  0.34850000  0.76695000  0.22559000  1
  H  H186  1  0.07862000  0.71852000  0.24052000  1
  H  H187  1  0.32426000  0.08772000  0.19547000  1
  H  H188  1  0.32661000  0.20340000  0.16595000  1
  H  H189  1  0.11786000  0.96723000  0.12172000  1
  H  H190  1  0.11972000  0.08383000  0.09296000  1
  H  H191  1  0.22355000  0.20196000  0.11517000  1
  H  H192  1  0.24228000  0.26248000  0.21714000  1
  H  H193  1  0.04576000  0.34298000  0.13411000  1
  H  H194  1  0.42604000  0.55208000  0.24130000  1
  H  H195  1  0.54617000  0.52704000  0.20993000  1
  H  H196  1  0.51899000  0.42044000  0.16622000  1
  H  H197  1  0.37205000  0.33764000  0.15442000  1
  H  H198  1  0.27884000  0.46845000  0.23064000  1
  H  H199  1  0.00164000  0.15170000  0.11307000  1
  H  H200  1  0.85525000  0.06535000  0.10481000  1
  H  H201  1  0.92346000  0.25378000  0.20614000  1
  H  H202  1  0.77711000  0.16820000  0.19713000  1
  H  H203  1  0.74370000  0.07204000  0.14748000  1
  H  H204  1  0.61680000  0.65823000  0.20113000  1
  H  H205  1  0.72711000  0.93122000  0.21100000  1
  H  H206  1  0.80921000  0.60383000  0.29822000  1
  H  H207  1  0.91792000  0.58309000  0.25762000  1
  H  H208  1  0.93752000  0.63988000  0.19743000  1
  H  H209  1  0.84814000  0.71712000  0.17763000  1
  H  H210  1  0.72230000  0.68384000  0.27955000  1
  H  H211  1  0.59576000  0.93616000  0.15375000  1
  H  H212  1  0.49629000  0.01124000  0.15711000  1
  H  H213  1  0.50767000  0.84083000  0.25554000  1
  H  H214  1  0.41006000  0.91760000  0.25903000  1
  H  H215  1  0.40399000  0.00234000  0.20985000  1
  C  C216  1  0.22952000  0.75951000  0.15316000  1
  C  C217  1  0.51773000  0.72955000  0.16649000  1
  C  C218  1  0.20088000  0.44424000  0.14289000  1
  C  C219  1  0.48378000  0.53944000  0.07034000  1
  C  C220  1  0.17289000  0.56128000  0.06553000  1
  C  C221  1  0.51572000  0.84782000  0.08711000  1
  C  C222  1  0.14621000  0.69925000  0.40809000  1
  C  C223  1  0.20067000  0.44928000  0.40836000  1
  C  C224  1  0.51645000  0.79773000  0.38734000  1
  C  C225  1  0.48819000  0.54036000  0.44589000  1
  C  C226  1  0.39630000  0.79401000  0.46924000  1
  C  C227  1  0.16245000  0.49754000  0.50309000  1
  C  C228  1  0.08685000  0.16081000  0.34388000  1
  C  C229  1  0.12982000  0.97704000  0.22700000  1
  C  C230  1  0.92624000  0.84292000  0.35470000  1
  C  C231  1  0.85065000  0.86722000  0.21583000  1
  C  C232  1  0.81403000  0.97933000  0.33046000  1
  C  C233  1  0.08718000  0.16376000  0.21002000  1
  C  C234  1  0.79454000  0.12676000  0.64264000  1
  C  C235  1  0.48659000  0.16755000  0.63697000  1
  C  C236  1  0.81152000  0.43313000  0.66383000  1
  C  C237  1  0.58536000  0.37327000  0.55190000  1
  C  C238  1  0.88631000  0.34615000  0.58432000  1
  C  C239  1  0.51246000  0.05550000  0.55459000  1
  C  C240  1  0.56299000  0.35555000  0.96539000  1
  C  C241  1  0.90337000  0.43058000  0.96463000  1
  C  C242  1  0.65945000  0.11067000  0.01613000  1
  C  C243  1  0.90268000  0.20415000  0.92204000  1
  C  C244  1  0.54923000  0.12277000  0.92765000  1
  C  C245  1  0.82293000  0.46224000  0.87580000  1
  C  C246  1  0.95579000  0.76878000  0.84315000  1
  C  C247  1  0.93626000  0.92490000  0.71660000  1
  C  C248  1  0.14334000  0.08197000  0.85828000  1
  C  C249  1  0.19709000  0.02915000  0.71762000  1
  C  C250  1  0.25593000  0.95179000  0.83994000  1
  C  C251  1  0.97257000  0.72869000  0.71927000  1
  C  C252  1  0.32830000  0.99508000  0.86431000  1
  C  C253  1  0.36044000  0.96302000  0.89351000  1
  C  C254  1  0.43256000  0.00550000  0.91429000  1
  C  C255  1  0.47479000  0.07842000  0.90531000  1
  C  C256  1  0.44335000  0.10972000  0.87591000  1
  C  C257  1  0.36869000  0.06921000  0.85672000  1
  C  C258  1  0.48914000  0.18459000  0.86447000  1
  C  C259  1  0.54970000  0.19427000  0.83755000  1
  C  C260  1  0.59088000  0.26499000  0.82584000  1
  C  C261  1  0.57271000  0.32622000  0.84134000  1
  C  C262  1  0.51215000  0.31670000  0.86807000  1
  C  C263  1  0.47011000  0.24601000  0.87952000  1
  C  C264  1  0.31971000  0.88544000  0.90240000  1
  C  C265  1  0.33382000  0.82816000  0.88114000  1
  C  C266  1  0.28924000  0.75476000  0.88753000  1
  C  C267  1  0.23153000  0.73827000  0.91546000  1
  C  C268  1  0.21844000  0.79513000  0.93712000  1
  C  C269  1  0.26250000  0.86865000  0.93069000  1
  C  C270  1  0.85662000  0.53816000  0.86284000  1
  C  C271  1  0.94561000  0.57192000  0.86003000  1
  C  C272  1  0.97730000  0.64824000  0.85595000  1
  C  C273  1  0.92169000  0.69107000  0.85284000  1
  C  C274  1  0.83308000  0.65786000  0.85592000  1
  C  C275  1  0.80110000  0.58144000  0.85980000  1
  C  C276  1  0.77420000  0.70334000  0.85831000  1
  C  C277  1  0.78475000  0.75627000  0.88684000  1
  C  C278  1  0.72805000  0.79806000  0.88950000  1
  C  C279  1  0.65956000  0.78609000  0.86429000  1
  C  C280  1  0.64774000  0.73244000  0.83632000  1
  C  C281  1  0.70551000  0.69180000  0.83295000  1
  C  C282  1  0.00642000  0.52838000  0.86155000  1
  C  C283  1  0.05994000  0.53362000  0.89256000  1
  C  C284  1  0.11803000  0.49293000  0.89386000  1
  C  C285  1  0.12382000  0.44785000  0.86405000  1
  C  C286  1  0.07244000  0.44422000  0.83268000  1
  C  C287  1  0.01451000  0.48504000  0.83121000  1
  C  C288  1  0.09509000  0.13001000  0.87223000  1
  C  C289  1  0.10374000  0.15263000  0.90940000  1
  C  C290  1  0.03773000  0.17254000  0.92589000  1
  C  C291  1  0.96439000  0.17248000  0.90554000  1
  C  C292  1  0.95877000  0.15565000  0.86786000  1
  C  C293  1  0.02474000  0.13581000  0.85135000  1
  C  C294  1  0.88368000  0.15816000  0.84551000  1
  C  C295  1  0.81446000  0.09413000  0.83922000  1
  C  C296  1  0.74455000  0.09607000  0.81711000  1
  C  C297  1  0.74375000  0.16165000  0.80107000  1
  C  C298  1  0.81198000  0.22586000  0.80776000  1
  C  C299  1  0.88207000  0.22417000  0.82982000  1
  C  C300  1  0.18370000  0.16002000  0.93069000  1
  C  C301  1  0.19370000  0.10041000  0.95012000  1
  C  C302  1  0.26786000  0.10875000  0.97159000  1
  C  C303  1  0.33027000  0.17738000  0.97519000  1
  C  C304  1  0.31893000  0.23761000  0.95706000  1
  C  C305  1  0.24661000  0.22875000  0.93432000  1
  C  C306  1  0.92980000  0.65219000  0.70698000  1
  C  C307  1  0.97151000  0.59776000  0.71047000  1
  C  C308  1  0.93110000  0.52585000  0.69705000  1
  C  C309  1  0.84940000  0.50759000  0.68015000  1
  C  C310  1  0.80638000  0.56157000  0.67773000  1
  C  C311  1  0.84689000  0.63348000  0.69135000  1
  C  C312  1  0.71970000  0.54373000  0.66039000  1
  C  C313  1  0.65064000  0.49131000  0.67533000  1
  C  C314  1  0.56974000  0.47239000  0.65794000  1
  C  C315  1  0.55691000  0.50714000  0.62625000  1
  C  C316  1  0.62492000  0.56082000  0.61187000  1
  C  C317  1  0.70634000  0.57864000  0.62863000  1
  C  C318  1  0.05680000  0.61537000  0.72887000  1
  C  C319  1  0.12950000  0.62373000  0.70840000  1
  C  C320  1  0.21054000  0.64440000  0.72571000  1
  C  C321  1  0.21921000  0.65621000  0.76346000  1
  C  C322  1  0.14685000  0.64711000  0.78397000  1
  C  C323  1  0.06574000  0.62690000  0.76675000  1
  C  C324  1  0.27519000  0.07980000  0.70393000  1
  C  C325  1  0.35568000  0.07026000  0.71236000  1
  C  C326  1  0.42699000  0.10946000  0.69366000  1
  C  C327  1  0.41764000  0.14988000  0.66340000  1
  C  C328  1  0.33790000  0.16228000  0.65600000  1
  C  C329  1  0.26805000  0.12870000  0.67707000  1
  C  C330  1  0.32549000  0.20707000  0.62541000  1
  C  C331  1  0.34355000  0.28372000  0.63036000  1
  C  C332  1  0.33510000  0.32638000  0.60096000  1
  C  C333  1  0.30844000  0.29271000  0.56663000  1
  C  C334  1  0.29013000  0.21634000  0.56164000  1
  C  C335  1  0.29790000  0.17340000  0.59100000  1
  C  C336  1  0.36527000  0.01448000  0.73815000  1
  C  C337  1  0.33007000  0.93891000  0.72898000  1
  C  C338  1  0.35030000  0.88631000  0.75033000  1
  C  C339  1  0.40816000  0.90873000  0.78004000  1
  C  C340  1  0.44449000  0.98374000  0.78896000  1
  C  C341  1  0.42235000  0.03653000  0.76841000  1
  C  C342  1  0.89850000  0.97514000  0.69740000  1
  C  C343  1  0.81008000  0.96624000  0.69773000  1
  C  C344  1  0.77691000  0.01631000  0.67968000  1
  C  C345  1  0.82987000  0.07190000  0.65930000  1
  C  C346  1  0.91663000  0.07585000  0.65609000  1
  C  C347  1  0.95088000  0.02946000  0.67633000  1
  C  C348  1  0.97018000  0.12364000  0.62942000  1
  C  C349  1  0.95087000  0.10967000  0.59202000  1
  C  C350  1  0.00395000  0.15267000  0.56683000  1
  C  C351  1  0.07692000  0.20894000  0.57881000  1
  C  C352  1  0.09634000  0.22313000  0.61600000  1
  C  C353  1  0.04317000  0.18069000  0.64131000  1
  C  C354  1  0.75083000  0.90103000  0.71377000  1
  C  C355  1  0.70456000  0.90967000  0.74411000  1
  C  C356  1  0.64492000  0.84836000  0.75790000  1
  C  C357  1  0.63147000  0.77835000  0.74155000  1
  C  C358  1  0.67839000  0.76933000  0.71171000  1
  C  C359  1  0.73758000  0.83050000  0.69765000  1
  C  C360  1  0.98433000  0.46796000  0.55656000  1
  C  C361  1  0.99557000  0.45089000  0.51604000  1
  C  C362  1  0.07942000  0.47567000  0.56529000  1
  C  C363  1  0.08963000  0.45811000  0.52506000  1
  C  C364  1  0.96167000  0.38515000  0.56364000  1
  C  C365  1  0.05569000  0.39228000  0.57269000  1
  C  C366  1  0.06703000  0.37532000  0.53209000  1
  C  C367  1  0.97203000  0.36764000  0.52337000  1
  C  C368  1  0.36172000  0.90456000  0.50888000  1
  C  C369  1  0.42354000  0.97792000  0.49621000  1
  C  C370  1  0.41413000  0.91389000  0.54545000  1
  C  C371  1  0.47534000  0.98598000  0.53238000  1
  C  C372  1  0.41962000  0.86280000  0.49249000  1
  C  C373  1  0.47138000  0.87107000  0.52866000  1
  C  C374  1  0.53272000  0.94386000  0.51586000  1
  C  C375  1  0.48074000  0.93503000  0.47953000  1
  C  C376  1  0.47807000  0.42495000  0.48312000  1
  C  C377  1  0.49029000  0.44777000  0.52374000  1
  C  C378  1  0.56163000  0.40431000  0.48421000  1
  C  C379  1  0.57350000  0.42676000  0.52490000  1
  C  C380  1  0.52854000  0.50438000  0.47382000  1
  C  C381  1  0.61232000  0.48402000  0.47470000  1
  C  C382  1  0.62521000  0.50599000  0.51602000  1
  C  C383  1  0.54088000  0.52725000  0.51447000  1
  C  C384  1  0.06499000  0.71585000  0.40551000  1
  C  C385  1  0.00468000  0.68241000  0.37744000  1
  C  C386  1  0.95166000  0.72110000  0.36281000  1
  C  C387  1  0.95609000  0.79125000  0.37736000  1
  C  C388  1  0.00272000  0.81586000  0.41089000  1
  C  C389  1  0.05799000  0.77841000  0.42427000  1
  C  C390  1  0.99438000  0.88028000  0.43209000  1
  C  C391  1  0.05572000  0.94949000  0.42981000  1
  C  C392  1  0.04333000  0.01170000  0.44705000  1
  C  C393  1  0.97073000  0.00482000  0.46717000  1
  C  C394  1  0.91104000  0.93555000  0.47054000  1
  C  C395  1  0.92314000  0.87323000  0.45331000  1
  C  C396  1  0.99388000  0.60569000  0.36480000  1
  C  C397  1  0.05084000  0.59016000  0.34048000  1
  C  C398  1  0.04463000  0.51700000  0.33093000  1
  C  C399  1  0.98114000  0.45924000  0.34527000  1
  C  C400  1  0.92385000  0.47447000  0.36930000  1
  C  C401  1  0.93001000  0.54753000  0.37904000  1
  C  C402  1  0.16080000  0.38580000  0.38366000  1
  C  C403  1  0.21050000  0.36286000  0.35813000  1
  C  C404  1  0.18420000  0.29004000  0.34409000  1
  C  C405  1  0.10744000  0.24012000  0.35475000  1
  C  C406  1  0.05244000  0.26631000  0.37655000  1
  C  C407  1  0.08026000  0.33863000  0.39138000  1
  C  C408  1  0.96422000  0.22033000  0.38218000  1
  C  C409  1  0.94362000  0.18394000  0.41485000  1
  C  C410  1  0.85973000  0.14103000  0.42017000  1
  C  C411  1  0.79596000  0.13567000  0.39331000  1
  C  C412  1  0.81618000  0.17240000  0.36088000  1
  C  C413  1  0.90017000  0.21441000  0.35521000  1
  C  C414  1  0.29231000  0.41405000  0.34733000  1
  C  C415  1  0.36987000  0.40541000  0.36020000  1
  C  C416  1  0.44710000  0.45691000  0.35201000  1
  C  C417  1  0.44716000  0.51712000  0.33104000  1
  C  C418  1  0.37003000  0.52575000  0.31809000  1
  C  C419  1  0.29271000  0.47413000  0.32598000  1
  C  C420  1  0.59401000  0.85368000  0.37585000  1
  C  C421  1  0.67258000  0.86843000  0.39580000  1
  C  C422  1  0.74324000  0.92556000  0.38549000  1
  C  C423  1  0.73909000  0.96185000  0.35317000  1
  C  C424  1  0.65830000  0.95562000  0.33708000  1
  C  C425  1  0.58673000  0.89966000  0.34753000  1
  C  C426  1  0.64680000  0.01124000  0.31182000  1
  C  C427  1  0.60288000  0.06072000  0.32268000  1
  C  C428  1  0.58693000  0.11015000  0.29804000  1
  C  C429  1  0.61427000  0.11010000  0.26247000  1
  C  C430  1  0.65771000  0.06075000  0.25154000  1
  C  C431  1  0.67378000  0.01136000  0.27610000  1
  C  C432  1  0.68203000  0.82355000  0.42679000  1
  C  C433  1  0.70766000  0.76016000  0.42113000  1
  C  C434  1  0.71064000  0.71479000  0.45008000  1
  C  C435  1  0.68932000  0.73310000  0.48479000  1
  C  C436  1  0.66559000  0.79711000  0.49066000  1
  C  C437  1  0.66229000  0.84248000  0.46176000  1
  C  C438  1  0.53346000  0.99107000  0.02827000  1
  C  C439  1  0.52373000  0.98575000  0.06981000  1
  C  C440  1  0.56516000  0.92228000  0.02740000  1
  C  C441  1  0.55579000  0.91783000  0.06875000  1
  C  C442  1  0.62628000  0.03999000  0.03486000  1
  C  C443  1  0.65853000  0.97215000  0.03376000  1
  C  C444  1  0.64868000  0.96659000  0.07542000  1
  C  C445  1  0.61691000  0.03546000  0.07624000  1
  C  C446  1  0.05387000  0.44709000  0.03514000  1
  C  C447  1  0.05866000  0.45193000  0.99343000  1
  C  C448  1  0.96686000  0.46294000  0.03351000  1
  C  C449  1  0.97240000  0.46818000  0.99205000  1
  C  C450  1  0.09956000  0.53046000  0.03900000  1
  C  C451  1  0.01339000  0.54688000  0.03777000  1
  C  C452  1  0.01786000  0.55156000  0.99584000  1
  C  C453  1  0.10502000  0.53564000  0.99755000  1
  C  C454  1  0.48334000  0.37337000  0.02650000  1
  C  C455  1  0.43386000  0.42964000  0.01905000  1
  C  C456  1  0.54976000  0.43193000  0.05097000  1
  C  C457  1  0.50073000  0.48734000  0.04309000  1
  C  C458  1  0.53738000  0.40102000  0.99348000  1
  C  C459  1  0.60394000  0.45871000  0.01760000  1
  C  C460  1  0.55464000  0.51460000  0.01000000  1
  C  C461  1  0.48826000  0.45631000  0.98561000  1
  C  C462  1  0.22779000  0.82488000  0.17559000  1
  C  C463  1  0.21441000  0.81964000  0.21332000  1
  C  C464  1  0.19661000  0.87770000  0.23254000  1
  C  C465  1  0.19075000  0.93996000  0.21437000  1
  C  C466  1  0.21866000  0.95023000  0.17853000  1
  C  C467  1  0.23651000  0.89236000  0.15918000  1
  C  C468  1  0.22206000  0.01920000  0.16017000  1
  C  C469  1  0.28047000  0.08628000  0.17272000  1
  C  C470  1  0.28149000  0.15183000  0.15622000  1
  C  C471  1  0.22354000  0.15095000  0.12751000  1
  C  C472  1  0.16492000  0.08436000  0.11503000  1
  C  C473  1  0.16414000  0.01850000  0.13123000  1
  C  C474  1  0.21432000  0.75203000  0.23227000  1
  C  C475  1  0.13686000  0.70312000  0.24262000  1
  C  C476  1  0.13365000  0.63247000  0.25341000  1
  C  C477  1  0.20820000  0.61158000  0.25561000  1
  C  C478  1  0.28598000  0.66097000  0.24653000  1
  C  C479  1  0.28915000  0.73092000  0.23475000  1
  C  C480  1  0.17135000  0.37258000  0.16032000  1
  C  C481  1  0.22727000  0.34928000  0.18376000  1
  C  C482  1  0.19962000  0.27985000  0.19884000  1
  C  C483  1  0.11725000  0.23280000  0.19070000  1
  C  C484  1  0.06131000  0.25568000  0.16725000  1
  C  C485  1  0.08866000  0.32550000  0.15221000  1
  C  C486  1  0.97249000  0.20870000  0.16015000  1
  C  C487  1  0.95273000  0.15579000  0.13135000  1
  C  C488  1  0.87019000  0.10673000  0.12676000  1
  C  C489  1  0.80717000  0.11070000  0.15072000  1
  C  C490  1  0.82619000  0.16445000  0.17894000  1
  C  C491  1  0.90871000  0.21325000  0.18377000  1
  C  C492  1  0.31551000  0.39672000  0.19211000  1
  C  C493  1  0.33108000  0.45741000  0.21671000  1
  C  C494  1  0.41414000  0.50466000  0.22281000  1
  C  C495  1  0.48186000  0.49094000  0.20486000  1
  C  C496  1  0.46661000  0.43049000  0.18041000  1
  C  C497  1  0.38368000  0.38336000  0.17403000  1
  C  C498  1  0.75849000  0.82962000  0.21604000  1
  C  C499  1  0.72574000  0.75201000  0.21576000  1
  C  C500  1  0.64031000  0.71776000  0.20438000  1
  C  C501  1  0.58759000  0.76056000  0.19404000  1
  C  C502  1  0.61620000  0.83722000  0.20215000  1
  C  C503  1  0.70253000  0.87157000  0.21053000  1
  C  C504  1  0.55616000  0.88132000  0.20373000  1
  C  C505  1  0.55400000  0.93070000  0.17634000  1
  C  C506  1  0.49837000  0.97358000  0.17837000  1
  C  C507  1  0.44635000  0.96865000  0.20812000  1
  C  C508  1  0.44990000  0.92091000  0.23589000  1
  C  C509  1  0.50478000  0.87736000  0.23380000  1
  C  C510  1  0.77963000  0.70635000  0.22740000  1
  C  C511  1  0.76902000  0.67430000  0.26148000  1
  C  C512  1  0.81843000  0.62947000  0.27217000  1
  C  C513  1  0.87949000  0.61749000  0.24920000  1
  C  C514  1  0.89034000  0.64935000  0.21521000  1
  C  C515  1  0.84000000  0.69317000  0.20412000  1
  O  O516  1  0.15246000  0.48827000  0.14220000  1
  O  O517  1  0.27587000  0.46326000  0.12831000  1
  O  O518  1  0.38986000  0.66717000  0.08096000  1
  O  O519  1  0.54342000  0.60196000  0.07765000  1
  O  O520  1  0.23913000  0.53605000  0.06442000  1
  O  O521  1  0.42311000  0.51474000  0.09327000  1
  O  O522  1  0.16795000  0.60888000  0.09136000  1
  O  O523  1  0.56133000  0.80358000  0.09430000  1
  O  O524  1  0.43385000  0.82832000  0.09358000  1
  O  O525  1  0.32373000  0.62481000  0.14325000  1
  O  O526  1  0.17620000  0.69427000  0.15952000  1
  O  O527  1  0.45779000  0.76144000  0.16150000  1
  O  O528  1  0.27504000  0.76841000  0.12406000  1
  O  O529  1  0.52482000  0.67934000  0.14259000  1
  O  O530  1  0.44558000  0.81574000  0.38985000  1
  O  O531  1  0.51922000  0.73188000  0.39641000  1
  O  O532  1  0.33304000  0.61304000  0.46762000  1
  O  O533  1  0.40789000  0.50789000  0.43740000  1
  O  O534  1  0.45365000  0.75893000  0.46538000  1
  O  O535  1  0.51752000  0.61219000  0.44278000  1
  O  O536  1  0.32714000  0.77751000  0.44763000  1
  O  O537  1  0.23798000  0.48884000  0.51028000  1
  O  O538  1  0.14856000  0.53641000  0.47542000  1
  O  O539  1  0.33508000  0.64601000  0.40056000  1
  O  O540  1  0.20405000  0.72753000  0.38430000  1
  O  O541  1  0.19422000  0.51434000  0.40102000  1
  O  O542  1  0.16484000  0.66657000  0.43678000  1
  O  O543  1  0.23435000  0.43801000  0.43953000  1
  O  O544  1  0.92094000  0.90473000  0.36962000  1
  O  O545  1  0.91783000  0.83258000  0.31893000  1
  O  O546  1  0.94992000  0.02960000  0.26083000  1
  O  O547  1  0.87779000  0.92132000  0.19344000  1
  O  O548  1  0.81679000  0.93149000  0.30475000  1
  O  O549  1  0.90151000  0.85813000  0.24245000  1
  O  O550  1  0.88449000  0.03010000  0.34163000  1
  O  O551  1  0.06050000  0.10032000  0.19172000  1
  O  O552  1  0.09142000  0.16599000  0.24558000  1
  O  O553  1  0.03499000  0.97878000  0.30828000  1
  O  O554  1  0.04934000  0.11089000  0.36722000  1
  O  O555  1  0.15473000  0.03493000  0.24964000  1
  O  O556  1  0.12651000  0.14232000  0.31647000  1
  O  O557  1  0.05013000  0.95153000  0.21510000  1
  O  O558  1  0.81703000  0.37614000  0.68224000  1
  O  O559  1  0.78433000  0.42571000  0.62925000  1
  O  O560  1  0.65059000  0.22750000  0.56859000  1
  O  O561  1  0.52017000  0.31466000  0.55659000  1
  O  O562  1  0.81078000  0.33372000  0.56872000  1
  O  O563  1  0.64752000  0.39464000  0.57695000  1
  O  O564  1  0.89515000  0.34115000  0.61969000  1
  O  O565  1  0.47032000  0.10430000  0.55719000  1
  O  O566  1  0.58686000  0.06676000  0.57176000  1
  O  O567  1  0.69084000  0.26152000  0.63603000  1
  O  O568  1  0.84228000  0.19584000  0.64243000  1
  O  O569  1  0.54138000  0.12964000  0.63648000  1
  O  O570  1  0.72529000  0.10319000  0.62126000  1
  O  O571  1  0.49413000  0.22130000  0.61457000  1
  O  O572  1  0.63710000  0.16766000  0.02827000  1
  O  O573  1  0.69542000  0.11089000  0.98418000  1
  O  O574  1  0.74657000  0.28576000  0.90751000  1
  O  O575  1  0.92048000  0.27587000  0.92484000  1
  O  O576  1  0.62498000  0.14202000  0.91382000  1
  O  O577  1  0.82876000  0.16083000  0.93237000  1
  O  O578  1  0.53991000  0.13773000  0.96203000  1
  O  O579  1  0.85051000  0.40903000  0.86220000  1
  O  O580  1  0.76287000  0.44845000  0.90007000  1
  O  O581  1  0.71861000  0.27477000  0.97477000  1
  O  O582  1  0.53829000  0.28376000  0.96732000  1
  O  O583  1  0.82357000  0.42192000  0.97183000  1
  O  O584  1  0.62260000  0.38791000  0.94317000  1
  O  O585  1  0.92436000  0.41834000  0.93153000  1
  O  O586  1  0.14268000  0.02346000  0.87682000  1
  O  O587  1  0.16614000  0.08625000  0.82390000  1
  O  O588  1  0.10301000  0.87972000  0.76620000  1
  O  O589  1  0.15268000  0.97343000  0.69622000  1
  O  O590  1  0.24949000  0.97439000  0.80723000  1
  O  O591  1  0.16250000  0.04913000  0.74642000  1
  O  O592  1  0.18999000  0.90270000  0.85301000  1
  O  O593  1  0.04465000  0.76493000  0.70463000  1
  O  O594  1  0.93210000  0.76245000  0.74074000  1
  O  O595  1  0.03616000  0.94661000  0.81195000  1
  O  O596  1  0.02271000  0.81277000  0.86186000  1
  O  O597  1  0.92026000  0.91115000  0.75083000  1
  O  O598  1  0.91938000  0.79270000  0.81574000  1
  O  O599  1  0.97792000  0.88781000  0.69801000  1
