# generated using pymatgen
data_H28C41(NO)8
_symmetry_space_group_name_H-M   'P 1'
_cell_length_a   30.82140000
_cell_length_b   43.47900000
_cell_length_c   43.47900000
_cell_angle_alpha   90.00000000
_cell_angle_beta   89.99740000
_cell_angle_gamma   90.00000000
_symmetry_Int_Tables_number   1
_chemical_formula_structural   H28C41(NO)8
_chemical_formula_sum   'H224 C328 N64 O64'
_cell_volume   58265.49698445
_cell_formula_units_Z   8
loop_
 _symmetry_equiv_pos_site_id
 _symmetry_equiv_pos_as_xyz
  1  'x, y, z'
loop_
 _atom_site_type_symbol
 _atom_site_label
 _atom_site_symmetry_multiplicity
 _atom_site_fract_x
 _atom_site_fract_y
 _atom_site_fract_z
 _atom_site_occupancy
  H  25  1  0.11666200  0.23133500  0.19361800  1
  H  26  1  0.04024500  0.24310600  0.19624500  1
  H  27  1  0.95961400  0.25098800  0.18860800  1
  H  28  1  0.88443900  0.25200700  0.17321300  1
  H  29  1  0.91160500  0.18950400  0.10129200  1
  H  30  1  0.09465700  0.17523000  0.11578700  1
  H  31  1  0.01689000  0.24261400  0.08210900  1
  H  32  1  0.02928900  0.20116700  0.99463000  1
  H  33  1  0.01551500  0.15141500  0.01706200  1
  H  34  1  0.98703000  0.13661500  0.15721600  1
  H  35  1  0.99711400  0.10513800  0.04975600  1
  H  36  1  0.98209200  0.06738500  0.08910400  1
  H  39  1  0.84076800  0.21246800  0.10658700  1
  H  41  1  0.94924500  0.08159900  0.16223400  1
  H  43  1  0.03976500  0.27160000  0.03829400  1
  H  45  1  0.16521400  0.17699000  0.14128500  1
  H  70  1  0.11648000  0.77097600  0.67327900  1
  H  71  1  0.04003600  0.75927600  0.67070100  1
  H  72  1  0.95941000  0.75144700  0.67840600  1
  H  73  1  0.88424800  0.75050900  0.69383900  1
  H  74  1  0.91160500  0.81299900  0.76573300  1
  H  75  1  0.09467300  0.82709300  0.75113100  1
  H  76  1  0.01676300  0.75978000  0.78486100  1
  H  77  1  0.02921300  0.80120500  0.87234800  1
  H  78  1  0.01555800  0.85097300  0.84991700  1
  H  79  1  0.98701400  0.86580600  0.70977200  1
  H  80  1  0.99719200  0.89726000  0.81723300  1
  H  81  1  0.98214700  0.93502500  0.77790000  1
  H  84  1  0.84072300  0.79013700  0.76047300  1
  H  86  1  0.94922900  0.92081900  0.70479200  1
  H  88  1  0.03956600  0.73076400  0.82867200  1
  H  90  1  0.16519600  0.82529900  0.72552400  1
  H  115  1  0.11666900  0.74104900  0.16356500  1
  H  116  1  0.04025400  0.73843000  0.17535000  1
  H  117  1  0.95961400  0.74606100  0.18322700  1
  H  118  1  0.88443600  0.76145200  0.18423900  1
  H  119  1  0.91161200  0.83339000  0.12176000  1
  H  120  1  0.09466100  0.81889100  0.10747400  1
  H  121  1  0.01689700  0.85259700  0.17488100  1
  H  122  1  0.02925200  0.94007600  0.13342600  1
  H  123  1  0.01549200  0.91763300  0.08367500  1
  H  124  1  0.98701400  0.77747600  0.06890000  1
  H  125  1  0.99708500  0.88493000  0.03740600  1
  H  126  1  0.98203700  0.84557800  0.99966400  1
  H  129  1  0.84076200  0.82808200  0.14470100  1
  H  131  1  0.94921200  0.77244800  0.01389500  1
  H  133  1  0.03975800  0.89641600  0.20386300  1
  H  135  1  0.16520500  0.79336200  0.10920000  1
  H  160  1  0.11643500  0.26142300  0.70327100  1
  H  161  1  0.03999200  0.26401700  0.69157800  1
  H  162  1  0.95938100  0.25628900  0.68370600  1
  H  163  1  0.88422800  0.24083600  0.68272100  1
  H  164  1  0.91155700  0.16894600  0.74522200  1
  H  165  1  0.09461400  0.18355500  0.75936100  1
  H  166  1  0.01671500  0.14984100  0.69204800  1
  H  167  1  0.02922500  0.06235900  0.73347700  1
  H  168  1  0.01555600  0.08478600  0.78324400  1
  H  169  1  0.98698500  0.22492700  0.79808200  1
  H  170  1  0.99722400  0.11747000  0.82954000  1
  H  171  1  0.98220200  0.15680500  0.86730600  1
  H  174  1  0.84069400  0.17420000  0.72234200  1
  H  176  1  0.94928100  0.22993100  0.85311200  1
  H  178  1  0.03954400  0.10603200  0.66303300  1
  H  180  1  0.16514500  0.20914800  0.75756900  1
  H  205  1  0.61703500  0.74453400  0.68541900  1
  H  206  1  0.53999700  0.74880700  0.69415900  1
  H  207  1  0.45784700  0.74629500  0.69484000  1
  H  208  1  0.38123800  0.74027200  0.68511300  1
  H  209  1  0.40902000  0.68460100  0.60788900  1
  H  210  1  0.59408600  0.68374800  0.61137400  1
  H  211  1  0.50881800  0.74467400  0.58322600  1
  H  212  1  0.52314200  0.70370200  0.49567700  1
  H  213  1  0.51378200  0.65355600  0.51819200  1
  H  214  1  0.49051200  0.63762200  0.65861700  1
  H  215  1  0.49869500  0.60673400  0.55093700  1
  H  216  1  0.48684600  0.56852700  0.59036800  1
  H  219  1  0.33562300  0.69034900  0.62717900  1
  H  221  1  0.45431700  0.58304400  0.66400000  1
  H  223  1  0.52815200  0.77460800  0.53954000  1
  H  225  1  0.66582900  0.70336700  0.62177500  1
  H  250  1  0.61674900  0.25779100  0.18152900  1
  H  251  1  0.53969600  0.25356800  0.17280900  1
  H  252  1  0.45755500  0.25611200  0.17215700  1
  H  253  1  0.38096500  0.26206400  0.18199500  1
  H  254  1  0.40885800  0.31772300  0.25920600  1
  H  255  1  0.59391100  0.31862500  0.25554800  1
  H  256  1  0.50868500  0.25774700  0.28372700  1
  H  257  1  0.52304200  0.29871900  0.37127200  1
  H  258  1  0.51361000  0.34886500  0.34876500  1
  H  259  1  0.49048300  0.36479900  0.20832800  1
  H  260  1  0.49866900  0.39570800  0.31600500  1
  H  261  1  0.48694000  0.43391700  0.27656100  1
  H  264  1  0.33543800  0.31190000  0.24008000  1
  H  266  1  0.45449500  0.41940400  0.20284900  1
  H  268  1  0.52799900  0.22780800  0.32740500  1
  H  270  1  0.66561400  0.29894200  0.24513800  1
  H  295  1  0.61699200  0.24924700  0.67674100  1
  H  296  1  0.53995800  0.24052100  0.68103500  1
  H  297  1  0.45781400  0.23983500  0.67853100  1
  H  298  1  0.38120500  0.24960100  0.67256500  1
  H  299  1  0.40897500  0.32685400  0.61693500  1
  H  300  1  0.59404100  0.32329600  0.61596700  1
  H  301  1  0.50871100  0.35145400  0.67693500  1
  H  302  1  0.52296400  0.43902300  0.63599100  1
  H  303  1  0.51365200  0.41652000  0.58583600  1
  H  304  1  0.49045700  0.27608700  0.56987300  1
  H  305  1  0.49869800  0.38376900  0.53898900  1
  H  306  1  0.48681400  0.34434800  0.50078000  1
  H  309  1  0.33557500  0.30760100  0.62271700  1
  H  311  1  0.45432000  0.27068200  0.51528200  1
  H  313  1  0.52790200  0.39515100  0.70689800  1
  H  315  1  0.66577700  0.31288900  0.63557700  1
  H  340  1  0.61674900  0.75318800  0.19006400  1
  H  341  1  0.53969600  0.76189100  0.18580600  1
  H  342  1  0.45754500  0.76251500  0.18831000  1
  H  343  1  0.38094900  0.75274000  0.19434200  1
  H  344  1  0.40882900  0.67556900  0.25005700  1
  H  345  1  0.59388800  0.67916400  0.25090000  1
  H  346  1  0.50868100  0.65096700  0.18999900  1
  H  347  1  0.52323000  0.56344600  0.23099300  1
  H  348  1  0.51381400  0.58596500  0.28113500  1
  H  349  1  0.49044400  0.72638200  0.29703500  1
  H  350  1  0.49872700  0.61871700  0.32796500  1
  H  351  1  0.48696600  0.65816300  0.36616800  1
  H  354  1  0.33542200  0.69474400  0.24427200  1
  H  356  1  0.45448200  0.73186300  0.35164000  1
  H  358  1  0.52816100  0.60729700  0.16008600  1
  H  360  1  0.66561100  0.68957400  0.23121000  1
  H  366  1  0.06373300  0.02692100  0.19932300  1
  H  368  1  0.94665600  0.01995900  0.15049400  1
  H  376  1  0.96426000  0.92161200  0.19509900  1
  H  377  1  0.99743500  0.93185400  0.22576000  1
  H  379  1  0.04077400  0.06309100  0.15164800  1
  H  380  1  0.01619400  0.07543100  0.18623000  1
  H  386  1  0.06363300  0.97551600  0.66760900  1
  H  388  1  0.94661000  0.98246000  0.71651300  1
  H  396  1  0.96410100  0.08079600  0.67185800  1
  H  397  1  0.99724700  0.07055000  0.64118000  1
  H  399  1  0.04075200  0.93937000  0.71532100  1
  H  400  1  0.01615700  0.92699200  0.68075800  1
  H  406  1  0.06363800  0.73532900  0.95918000  1
  H  408  1  0.94660700  0.78421700  0.95224700  1
  H  416  1  0.96411400  0.73959600  0.85389800  1
  H  417  1  0.99724700  0.70891200  0.86414100  1
  H  419  1  0.04072800  0.78303000  0.99535200  1
  H  420  1  0.01615400  0.74845000  0.00770000  1
  H  426  1  0.06377900  0.26702100  0.90777300  1
  H  428  1  0.94668200  0.21821500  0.91474600  1
  H  436  1  0.96429000  0.26285300  0.01307700  1
  H  437  1  0.99749000  0.29349800  0.00282800  1
  H  439  1  0.04080700  0.21933700  0.87162800  1
  H  440  1  0.01625100  0.25391800  0.85926200  1
  H  446  1  0.56388300  0.52416300  0.70026700  1
  H  448  1  0.44718900  0.52198000  0.65055400  1
  H  456  1  0.45551400  0.42325200  0.69564500  1
  H  457  1  0.48772200  0.43270100  0.72711000  1
  H  459  1  0.54382900  0.56087500  0.65120400  1
  H  460  1  0.52219800  0.57444200  0.68632800  1
  H  466  1  0.56420500  0.47826700  0.16683700  1
  H  468  1  0.44734400  0.48046800  0.21636300  1
  H  476  1  0.45577700  0.57915500  0.17120300  1
  H  477  1  0.48813100  0.56969500  0.13981400  1
  H  479  1  0.54393300  0.44157400  0.21591100  1
  H  480  1  0.52252200  0.42799500  0.18072700  1
  H  486  1  0.56398400  0.23451100  0.45643200  1
  H  488  1  0.44720200  0.28412500  0.45422500  1
  H  496  1  0.45560800  0.23899100  0.35552200  1
  H  497  1  0.48789100  0.20756500  0.36498100  1
  H  499  1  0.54381900  0.28356400  0.49313700  1
  H  500  1  0.52225600  0.24842100  0.50670600  1
  H  506  1  0.56415300  0.76790800  0.41052000  1
  H  508  1  0.44732800  0.71834400  0.41270900  1
  H  516  1  0.45575400  0.76344400  0.51142500  1
  H  517  1  0.48805300  0.79486400  0.50196900  1
  H  519  1  0.54392600  0.71883600  0.37381800  1
  H  520  1  0.52248700  0.75401400  0.36024400  1
  H  526  1  0.74825500  0.30960900  0.15717600  1
  H  528  1  0.69976300  0.23974500  0.21404500  1
  H  536  1  0.79360300  0.19381700  0.13976400  1
  H  537  1  0.82920800  0.20151500  0.17020000  1
  H  539  1  0.66864800  0.30984800  0.18018800  1
  H  540  1  0.70570700  0.32070400  0.20886900  1
  H  546  1  0.74841700  0.69282800  0.70979900  1
  H  548  1  0.69987600  0.76264600  0.65289700  1
  H  556  1  0.79338600  0.80863800  0.72735500  1
  H  557  1  0.82906200  0.80109200  0.69692100  1
  H  559  1  0.66888800  0.69246500  0.68669300  1
  H  560  1  0.70603400  0.68170800  0.65802800  1
  H  566  1  0.74823500  0.77753800  0.24185100  1
  H  568  1  0.69975000  0.72064400  0.17200600  1
  H  576  1  0.79361300  0.79489400  0.12605200  1
  H  577  1  0.82921500  0.76446000  0.13377100  1
  H  579  1  0.66861200  0.75453200  0.24208400  1
  H  580  1  0.70567100  0.72586300  0.25296800  1
  H  586  1  0.74840100  0.22487700  0.62503100  1
  H  588  1  0.69982800  0.28176800  0.69485000  1
  H  596  1  0.79334700  0.20731600  0.74084700  1
  H  597  1  0.82901700  0.23775100  0.73330200  1
  H  599  1  0.66887200  0.24797200  0.62466100  1
  H  600  1  0.70600500  0.27664800  0.61391700  1
  H  606  1  0.26134300  0.69440800  0.15183000  1
  H  608  1  0.29786900  0.75820200  0.21931900  1
  H  616  1  0.20553000  0.80965000  0.14787500  1
  H  617  1  0.16829000  0.79514400  0.17465000  1
  H  619  1  0.33853400  0.69429600  0.17904600  1
  H  620  1  0.29925800  0.67844400  0.20361000  1
  H  626  1  0.26145500  0.30797100  0.71511100  1
  H  628  1  0.29797600  0.24419800  0.64759900  1
  H  636  1  0.20524000  0.19277100  0.71879000  1
  H  637  1  0.16810100  0.20748300  0.69205700  1
  H  639  1  0.33876400  0.30795300  0.68798500  1
  H  640  1  0.29958200  0.32395800  0.66344600  1
  H  646  1  0.26137300  0.21946300  0.24027500  1
  H  648  1  0.29790400  0.28704000  0.17657300  1
  H  656  1  0.20551200  0.21569700  0.12503400  1
  H  657  1  0.16828600  0.24245000  0.13960000  1
  H  659  1  0.33859900  0.24667100  0.24039200  1
  H  660  1  0.29932400  0.27118800  0.25631600  1
  H  666  1  0.26146400  0.78273600  0.62671200  1
  H  668  1  0.29800700  0.71529200  0.69055100  1
  H  676  1  0.20530300  0.78654000  0.74192300  1
  H  677  1  0.16815300  0.75979200  0.72725100  1
  H  679  1  0.33875100  0.75561500  0.62672600  1
  H  680  1  0.29957400  0.73103500  0.61077900  1
  C  1  1  0.99758800  0.15203000  0.11159900  1
  C  2  1  0.00071900  0.14270200  0.08081100  1
  C  3  1  0.00844700  0.16832800  0.06255600  1
  C  4  1  0.00938200  0.19439400  0.08140900  1
  C  5  1  0.01640700  0.22364200  0.06823900  1
  C  6  1  0.02302600  0.22660200  0.03604700  1
  C  7  1  0.02325400  0.19970900  0.01768700  1
  C  8  1  0.01540900  0.17057800  0.03066200  1
  C  9  1  0.99534600  0.11174100  0.07227300  1
  C  10  1  0.98645600  0.08988200  0.09526000  1
  C  11  1  0.98386400  0.09864100  0.12650200  1
  C  12  1  0.98962600  0.12992600  0.13476100  1
  C  13  1  0.03869100  0.19601700  0.13463800  1
  C  14  1  0.02333000  0.21572100  0.15767800  1
  C  15  1  0.97887700  0.21944000  0.15397800  1
  C  16  1  0.96534100  0.20189500  0.12873800  1
  C  17  1  0.94946200  0.23780200  0.17053600  1
  C  18  1  0.90567500  0.23832900  0.16140500  1
  C  19  1  0.89087300  0.22028900  0.13639300  1
  C  20  1  0.92126800  0.20214800  0.11988100  1
  C  21  1  0.08344300  0.18926800  0.13287900  1
  C  22  1  0.11263200  0.20237900  0.15444800  1
  C  23  1  0.09611100  0.22178300  0.17782500  1
  C  24  1  0.05158900  0.22872400  0.17949000  1
  C  37  1  0.00273600  0.18593700  0.11420300  1
  C  46  1  0.99766200  0.85038700  0.75537800  1
  C  47  1  0.00083600  0.85971100  0.78616500  1
  C  48  1  0.00852500  0.83407800  0.80441500  1
  C  49  1  0.00938100  0.80801000  0.78556200  1
  C  50  1  0.01633200  0.77875200  0.79873200  1
  C  51  1  0.02293900  0.77578300  0.83092200  1
  C  52  1  0.02320900  0.80267200  0.84928700  1
  C  53  1  0.01546000  0.83181500  0.83631100  1
  C  54  1  0.99544000  0.89066800  0.79471400  1
  C  55  1  0.98651800  0.91253000  0.77173600  1
  C  56  1  0.98390900  0.90378000  0.74049300  1
  C  57  1  0.98963600  0.87249400  0.73222700  1
  C  58  1  0.03864500  0.80635200  0.73232200  1
  C  59  1  0.02322500  0.78665300  0.70930000  1
  C  60  1  0.97876300  0.78299400  0.71300900  1
  C  61  1  0.96528200  0.80055800  0.73825400  1
  C  62  1  0.94929300  0.76466500  0.69646600  1
  C  63  1  0.90551600  0.76417500  0.70562800  1
  C  64  1  0.89077300  0.78223900  0.73064100  1
  C  65  1  0.92121900  0.80035600  0.74712800  1
  C  66  1  0.08341200  0.81306100  0.73405200  1
  C  67  1  0.11255000  0.79992100  0.71246200  1
  C  68  1  0.09596700  0.78053300  0.68909700  1
  C  69  1  0.05143000  0.77363300  0.68746100  1
  C  82  1  0.00272900  0.81647400  0.75277000  1
  C  91  1  0.99759800  0.82309300  0.08430500  1
  C  92  1  0.00075100  0.85387600  0.07496800  1
  C  93  1  0.00845600  0.87214000  0.10059300  1
  C  94  1  0.00939300  0.85329200  0.12666200  1
  C  95  1  0.01640900  0.86646600  0.15590800  1
  C  96  1  0.02302800  0.89865600  0.15886300  1
  C  97  1  0.02323700  0.91701700  0.13196900  1
  C  98  1  0.01541300  0.90403300  0.10283800  1
  C  99  1  0.99531000  0.86241600  0.04401300  1
  C  100  1  0.98642000  0.83942300  0.02215900  1
  C  101  1  0.98384100  0.80818300  0.03092200  1
  C  102  1  0.98961900  0.79992800  0.06220600  1
  C  103  1  0.03870700  0.80006800  0.12830400  1
  C  104  1  0.02334300  0.77701600  0.14798900  1
  C  105  1  0.97889000  0.78071400  0.15170900  1
  C  106  1  0.96535700  0.80597000  0.13418500  1
  C  107  1  0.94946900  0.76414800  0.17005900  1
  C  108  1  0.90567800  0.77326900  0.17057300  1
  C  109  1  0.89087600  0.79828100  0.15253100  1
  C  110  1  0.92127400  0.81480400  0.13440600  1
  C  111  1  0.08345100  0.80180700  0.12152200  1
  C  112  1  0.11263700  0.78022200  0.13461500  1
  C  113  1  0.09612100  0.75685400  0.15402900  1
  C  114  1  0.05160000  0.75519600  0.16098000  1
  C  127  1  0.00274900  0.82049400  0.11821100  1
  C  136  1  0.99758100  0.17931900  0.78265600  1
  C  137  1  0.00076700  0.14853300  0.79197900  1
  C  138  1  0.00847500  0.13028400  0.76634600  1
  C  139  1  0.00932600  0.14913700  0.74027800  1
  C  140  1  0.01628600  0.13596900  0.71102000  1
  C  141  1  0.02290600  0.10377900  0.70805100  1
  C  142  1  0.02319200  0.08541600  0.73494200  1
  C  143  1  0.01541200  0.09838800  0.76408300  1
  C  144  1  0.99542700  0.13998700  0.82294200  1
  C  145  1  0.98653700  0.16296600  0.84480800  1
  C  146  1  0.98390300  0.19420800  0.83605400  1
  C  147  1  0.98962300  0.20247400  0.80476800  1
  C  148  1  0.03859000  0.20237800  0.73862800  1
  C  149  1  0.02317300  0.22541000  0.71893900  1
  C  150  1  0.97870800  0.22171700  0.71529300  1
  C  151  1  0.96523000  0.19644900  0.73282300  1
  C  152  1  0.94926100  0.23822300  0.69691200  1
  C  153  1  0.90548600  0.22905500  0.69640300  1
  C  154  1  0.89073700  0.20403600  0.71445600  1
  C  155  1  0.92117000  0.18755800  0.73259200  1
  C  156  1  0.08335800  0.20063300  0.74532700  1
  C  157  1  0.11249800  0.22223100  0.73220200  1
  C  158  1  0.09591700  0.24561300  0.71283500  1
  C  159  1  0.05138200  0.24725300  0.70593200  1
  C  172  1  0.00266900  0.18192800  0.74874500  1
  C  181  1  0.49963600  0.65337200  0.61296900  1
  C  182  1  0.50181900  0.64423700  0.58208500  1
  C  183  1  0.50590400  0.67019000  0.56371100  1
  C  184  1  0.50466800  0.69626900  0.58253800  1
  C  185  1  0.50899600  0.72575000  0.56928800  1
  C  186  1  0.51505000  0.72897400  0.53705400  1
  C  187  1  0.51707200  0.70209700  0.51870900  1
  C  188  1  0.51183800  0.67270600  0.53174100  1
  C  189  1  0.49797100  0.61316700  0.57353200  1
  C  190  1  0.49097000  0.59103200  0.59658000  1
  C  191  1  0.48882200  0.59963200  0.62788500  1
  C  192  1  0.49353600  0.63100300  0.63616900  1
  C  193  1  0.53796300  0.69959000  0.63427200  1
  C  194  1  0.52262600  0.71841500  0.65803400  1
  C  195  1  0.47758600  0.71884500  0.65700200  1
  C  196  1  0.46377800  0.70112200  0.63195400  1
  C  197  1  0.44762700  0.73357200  0.67645900  1
  C  198  1  0.40299900  0.72999600  0.67064400  1
  C  199  1  0.38813200  0.71236900  0.64537400  1
  C  200  1  0.41899100  0.69782600  0.62598500  1
  C  201  1  0.58307800  0.69666700  0.62939000  1
  C  202  1  0.61272600  0.71293900  0.64834600  1
  C  203  1  0.59625700  0.73194800  0.67208400  1
  C  204  1  0.55135000  0.73451700  0.67732700  1
  C  217  1  0.50143000  0.68746700  0.61551500  1
  C  226  1  0.49939600  0.34904200  0.25399400  1
  C  227  1  0.50159200  0.35818000  0.28487500  1
  C  228  1  0.50570300  0.33222900  0.30324900  1
  C  229  1  0.50458700  0.30615400  0.28441300  1
  C  230  1  0.50882700  0.27666900  0.29766700  1
  C  231  1  0.51493000  0.27344400  0.32989900  1
  C  232  1  0.51697100  0.30032400  0.34823900  1
  C  233  1  0.51169200  0.32971300  0.33521400  1
  C  234  1  0.49793600  0.38926600  0.29341300  1
  C  235  1  0.49095700  0.41139800  0.27036100  1
  C  236  1  0.48878600  0.40279200  0.23905600  1
  C  237  1  0.49345800  0.37141800  0.23078000  1
  C  238  1  0.53775500  0.30284900  0.23264200  1
  C  239  1  0.52238600  0.28406300  0.20886000  1
  C  240  1  0.47734900  0.28357100  0.20997100  1
  C  241  1  0.46357700  0.30128500  0.23503600  1
  C  242  1  0.44736700  0.26881900  0.19055700  1
  C  243  1  0.40274600  0.27236100  0.19643300  1
  C  244  1  0.38791200  0.28997000  0.22172500  1
  C  245  1  0.41880300  0.30452800  0.24107700  1
  C  246  1  0.58288000  0.30577300  0.23749100  1
  C  247  1  0.61248900  0.28942900  0.21856400  1
  C  248  1  0.59599400  0.27042900  0.19483300  1
  C  249  1  0.55108400  0.26790200  0.18959100  1
  C  262  1  0.50124800  0.31495000  0.25144100  1
  C  271  1  0.49950300  0.32173700  0.58562700  1
  C  272  1  0.50175400  0.35261800  0.57649600  1
  C  273  1  0.50586900  0.37098300  0.60245100  1
  C  274  1  0.50469700  0.35214700  0.62852400  1
  C  275  1  0.50892200  0.36539500  0.65801100  1
  C  276  1  0.51491100  0.39763500  0.66125200  1
  C  277  1  0.51695800  0.41598200  0.63437700  1
  C  278  1  0.51177700  0.40295500  0.60497900  1
  C  279  1  0.49793600  0.36117400  0.54542400  1
  C  280  1  0.49091100  0.33813300  0.52328700  1
  C  281  1  0.48873400  0.30682800  0.53188900  1
  C  282  1  0.49351300  0.29853000  0.56324900  1
  C  283  1  0.53791800  0.30039100  0.63179800  1
  C  284  1  0.52258700  0.27662800  0.65062300  1
  C  285  1  0.47754700  0.27768600  0.65109800  1
  C  286  1  0.46373600  0.30275300  0.63339800  1
  C  287  1  0.44759400  0.25823700  0.66583800  1
  C  288  1  0.40296600  0.26406800  0.66228600  1
  C  289  1  0.38809300  0.28934900  0.64468000  1
  C  290  1  0.41894900  0.30874200  0.63013600  1
  C  291  1  0.58303600  0.30523900  0.62882900  1
  C  292  1  0.61268000  0.28629900  0.64512600  1
  C  293  1  0.59621500  0.26256300  0.66413500  1
  C  294  1  0.55131100  0.25729400  0.66666667  1
  C  307  1  0.50138500  0.31917500  0.61971900  1
  C  316  1  0.49941800  0.68071900  0.28128700  1
  C  317  1  0.50169900  0.64984400  0.29043700  1
  C  318  1  0.50573500  0.63146100  0.26448600  1
  C  319  1  0.50449300  0.65028100  0.23840200  1
  C  320  1  0.50885000  0.63702900  0.20892500  1
  C  321  1  0.51500800  0.60480400  0.20571000  1
  C  322  1  0.51708800  0.58647100  0.23259200  1
  C  323  1  0.51180900  0.59950300  0.26198100  1
  C  324  1  0.49799400  0.64130900  0.32152100  1
  C  325  1  0.49099600  0.66436400  0.34364900  1
  C  326  1  0.48880600  0.69566400  0.33503800  1
  C  327  1  0.49346200  0.70393500  0.30365900  1
  C  328  1  0.53773600  0.70203000  0.23505900  1
  C  329  1  0.52237000  0.72577500  0.21622200  1
  C  330  1  0.47733000  0.72471900  0.21579600  1
  C  331  1  0.46355400  0.69968000  0.23354800  1
  C  332  1  0.44735100  0.74414000  0.20105300  1
  C  333  1  0.40272900  0.73829800  0.20463600  1
  C  334  1  0.38788900  0.71303100  0.22227900  1
  C  335  1  0.41877300  0.69367000  0.23682700  1
  C  336  1  0.58285700  0.69716800  0.23797400  1
  C  337  1  0.61247300  0.71612700  0.22167600  1
  C  338  1  0.59598400  0.73985100  0.20266200  1
  C  339  1  0.55107100  0.74507200  0.20010100  1
  C  352  1  0.50122600  0.68326000  0.24719300  1
  C  361  1  0.00533900  0.02873900  0.17411300  1
  C  362  1  0.03757400  0.01434800  0.19208100  1
  C  363  1  0.03483700  0.98295000  0.20048700  1
  C  364  1  0.99886900  0.96493900  0.19064700  1
  C  365  1  0.96643100  0.97899600  0.17207500  1
  C  367  1  0.97013600  0.01049000  0.16411700  1
  C  375  1  0.99560500  0.93199900  0.20061100  1
  C  378  1  0.01109500  0.06174400  0.16541900  1
  C  381  1  0.00525900  0.97368500  0.69284600  1
  C  382  1  0.03747500  0.98808300  0.67486400  1
  C  383  1  0.03471400  0.01947800  0.66645100  1
  C  384  1  0.99874900  0.03748400  0.67631000  1
  C  385  1  0.96634000  0.02342300  0.69490600  1
  C  387  1  0.97007100  0.99193300  0.70287300  1
  C  395  1  0.99545000  0.07041900  0.66633100  1
  C  398  1  0.01106000  0.94069000  0.70156100  1
  C  401  1  0.00526800  0.76056900  0.96101200  1
  C  402  1  0.03747900  0.74258300  0.94661400  1
  C  403  1  0.03471800  0.73417500  0.91521700  1
  C  404  1  0.99875300  0.74403000  0.89721400  1
  C  405  1  0.96634000  0.76262300  0.91127900  1
  C  407  1  0.97006800  0.77058100  0.94277300  1
  C  415  1  0.99545600  0.73406200  0.86427700  1
  C  418  1  0.01104700  0.76926000  0.99401700  1
  C  421  1  0.00536500  0.24183200  0.90595800  1
  C  422  1  0.03761600  0.25978700  0.92034800  1
  C  423  1  0.03488300  0.26819800  0.95174500  1
  C  424  1  0.99891200  0.25837100  0.96975900  1
  C  425  1  0.96646700  0.23980100  0.95570500  1
  C  427  1  0.97017200  0.23183400  0.92421400  1
  C  435  1  0.99564100  0.26835000  0.00269400  1
  C  438  1  0.01113500  0.23311700  0.87295800  1
  C  441  1  0.50612500  0.52837000  0.67462400  1
  C  442  1  0.53676900  0.51271800  0.69293100  1
  C  443  1  0.53100700  0.48161800  0.70169100  1
  C  444  1  0.49366300  0.46515100  0.69171100  1
  C  445  1  0.46287600  0.48044800  0.67270900  1
  C  447  1  0.46953000  0.51162800  0.66449400  1
  C  455  1  0.48726100  0.43251400  0.70193200  1
  C  458  1  0.51480100  0.56099700  0.66570400  1
  C  461  1  0.50634500  0.47406500  0.19237400  1
  C  462  1  0.53706800  0.48971700  0.17413100  1
  C  463  1  0.53133100  0.52081200  0.16534500  1
  C  464  1  0.49394800  0.53728000  0.17525500  1
  C  465  1  0.46310600  0.52199200  0.19421900  1
  C  467  1  0.46973500  0.49081600  0.20245800  1
  C  475  1  0.48756000  0.56990500  0.16499200  1
  C  478  1  0.51499500  0.44144300  0.20132300  1
  C  481  1  0.50617700  0.26010500  0.46062600  1
  C  482  1  0.53685700  0.24182200  0.44498300  1
  C  483  1  0.53111700  0.23304600  0.41388600  1
  C  484  1  0.49375700  0.24298800  0.39741500  1
  C  485  1  0.46293700  0.26197000  0.41270100  1
  C  487  1  0.46956900  0.27020200  0.44387900  1
  C  495  1  0.48737200  0.23274400  0.36478300  1
  C  498  1  0.51482300  0.26903500  0.49325600  1
  C  501  1  0.50631300  0.74235100  0.40631300  1
  C  502  1  0.53702200  0.76060100  0.42196800  1
  C  503  1  0.53127900  0.76937300  0.45306600  1
  C  504  1  0.49390900  0.75944200  0.46953200  1
  C  505  1  0.46307700  0.74047600  0.45424100  1
  C  507  1  0.46970900  0.73225200  0.42306200  1
  C  515  1  0.48752100  0.76968400  0.50216700  1
  C  518  1  0.51497600  0.73341100  0.37368800  1
  C  521  1  0.71922300  0.27818000  0.18770400  1
  C  522  1  0.74906300  0.28737500  0.16492000  1
  C  523  1  0.78003800  0.26687800  0.15224000  1
  C  524  1  0.78170900  0.23573900  0.16254600  1
  C  525  1  0.75143800  0.22621800  0.18546600  1
  C  527  1  0.72099500  0.24734000  0.19766700  1
  C  535  1  0.81298300  0.21204100  0.15042200  1
  C  538  1  0.68740100  0.30115400  0.19972500  1
  C  541  1  0.71937600  0.72422700  0.67924700  1
  C  542  1  0.74918900  0.71506400  0.70205900  1
  C  543  1  0.78007700  0.73560100  0.71478200  1
  C  544  1  0.78169300  0.76674400  0.70448700  1
  C  545  1  0.75144700  0.77623400  0.68153900  1
  C  547  1  0.72108900  0.75507700  0.66929700  1
  C  555  1  0.81285900  0.79048200  0.71666900  1
  C  558  1  0.68764100  0.70121600  0.66718200  1
  C  561  1  0.71920400  0.74699900  0.21043100  1
  C  562  1  0.74904700  0.76978500  0.21961900  1
  C  563  1  0.78002500  0.78245300  0.19912000  1
  C  564  1  0.78170600  0.77213300  0.16798500  1
  C  565  1  0.75143500  0.74921200  0.15847000  1
  C  567  1  0.72098500  0.73702400  0.17959400  1
  C  575  1  0.81298300  0.78424500  0.14428400  1
  C  578  1  0.68737500  0.73499300  0.23340800  1
  C  581  1  0.71934300  0.25542200  0.65643400  1
  C  582  1  0.74916700  0.23261600  0.64727000  1
  C  583  1  0.78005100  0.21989300  0.66780500  1
  C  584  1  0.78165700  0.23018500  0.69895100  1
  C  585  1  0.75140500  0.25313100  0.70843900  1
  C  587  1  0.72104700  0.26536900  0.68728100  1
  C  595  1  0.81282400  0.21800500  0.72269000  1
  C  598  1  0.68761200  0.26748500  0.63341900  1
  C  601  1  0.28453100  0.72279000  0.18743700  1
  C  602  1  0.25781100  0.71541800  0.16217500  1
  C  603  1  0.22604000  0.73599800  0.15068100  1
  C  604  1  0.22048100  0.76540800  0.16469300  1
  C  605  1  0.24778100  0.77318400  0.19002600  1
  C  607  1  0.27897600  0.75196000  0.20104300  1
  C  615  1  0.18762800  0.78891400  0.15445500  1
  C  618  1  0.31691900  0.69964500  0.19830400  1
  C  621  1  0.28465300  0.27959700  0.67950200  1
  C  622  1  0.25789700  0.28697500  0.70474300  1
  C  623  1  0.22603500  0.26643000  0.71617500  1
  C  624  1  0.22043300  0.23704100  0.70212700  1
  C  625  1  0.24777000  0.22925400  0.67681500  1
  C  627  1  0.27905400  0.25044700  0.66585900  1
  C  635  1  0.18746000  0.21358200  0.71228000  1
  C  638  1  0.31714200  0.30270200  0.66870300  1
  C  641  1  0.28456600  0.25510700  0.21194100  1
  C  642  1  0.25783900  0.22983900  0.21928100  1
  C  643  1  0.22605400  0.21838200  0.19869100  1
  C  644  1  0.22049200  0.23243800  0.16930100  1
  C  645  1  0.24780000  0.25777700  0.16155700  1
  C  647  1  0.27900500  0.26875700  0.18279200  1
  C  655  1  0.18762500  0.22224100  0.14578900  1
  C  658  1  0.31696900  0.26593500  0.23509400  1
  C  661  1  0.28467300  0.74715600  0.65512000  1
  C  662  1  0.25791500  0.77239100  0.64772000  1
  C  663  1  0.22606400  0.78384500  0.66826200  1
  C  664  1  0.22047200  0.76982900  0.69766900  1
  C  665  1  0.24781000  0.74452400  0.70547500  1
  C  667  1  0.27908500  0.73354700  0.68428600  1
  C  675  1  0.18751200  0.78000800  0.72112300  1
  C  678  1  0.31714900  0.73633200  0.63201900  1
  N  38  1  0.84642700  0.22228100  0.12771000  1
  N  40  1  0.97422700  0.07522200  0.14796200  1
  N  42  1  0.03142000  0.25557400  0.02196500  1
  N  44  1  0.15795300  0.19628200  0.15393100  1
  N  83  1  0.84633600  0.78027000  0.73936800  1
  N  85  1  0.97422400  0.92720100  0.71904600  1
  N  87  1  0.03125800  0.74679900  0.84500200  1
  N  89  1  0.15788000  0.80597500  0.71294300  1
  N  128  1  0.84642700  0.80695900  0.15451800  1
  N  130  1  0.97418800  0.78671900  0.00750700  1
  N  132  1  0.03139900  0.91274100  0.18783600  1
  N  134  1  0.15795600  0.78073700  0.12850800  1
  N  173  1  0.84630400  0.19530700  0.71247900  1
  N  175  1  0.97426600  0.21565900  0.85948200  1
  N  177  1  0.03124300  0.08970000  0.67906900  1
  N  179  1  0.15782800  0.22174400  0.73825400  1
  N  218  1  0.34265400  0.70860100  0.64133700  1
  N  220  1  0.47846600  0.57623900  0.64920800  1
  N  222  1  0.52231800  0.75817500  0.52306800  1
  N  224  1  0.65817200  0.71310700  0.64261000  1
  N  263  1  0.34244000  0.29370200  0.22583900  1
  N  265  1  0.47856600  0.42619200  0.21770800  1
  N  267  1  0.52217900  0.24424200  0.34388000  1
  N  269  1  0.65793800  0.28924100  0.22429000  1
  N  308  1  0.34261500  0.29341500  0.64094600  1
  N  310  1  0.47844900  0.28549400  0.50848900  1
  N  312  1  0.52209700  0.41162100  0.69045900  1
  N  314  1  0.65812300  0.29204900  0.64531100  1
  N  353  1  0.34241400  0.70894900  0.22604500  1
  N  355  1  0.47856300  0.71701200  0.35843300  1
  N  357  1  0.52232800  0.59082000  0.17651700  1
  N  359  1  0.65792500  0.71041600  0.22149900  1
  N  369  1  0.06769600  0.96935700  0.21879600  1
  N  370  1  0.93093600  0.96142400  0.16112100  1
  N  389  1  0.06754700  0.03307600  0.64812200  1
  N  390  1  0.93084900  0.04099000  0.70587800  1
  N  409  1  0.06755200  0.71584600  0.90161600  1
  N  410  1  0.93084500  0.77359400  0.89371600  1
  N  429  1  0.06775300  0.28650100  0.96533400  1
  N  430  1  0.93096500  0.22885700  0.97328100  1
  N  449  1  0.56222200  0.46679300  0.72048100  1
  N  450  1  0.42603100  0.46442200  0.66162500  1
  N  469  1  0.56261100  0.53563300  0.14660500  1
  N  470  1  0.42622900  0.53802500  0.20524400  1
  N  489  1  0.56237100  0.21428000  0.39906900  1
  N  490  1  0.42607700  0.27302100  0.39666900  1
  N  509  1  0.56254700  0.78812200  0.46789000  1
  N  510  1  0.42620600  0.72943700  0.47026800  1
  N  529  1  0.80847900  0.27783700  0.12914300  1
  N  530  1  0.75180100  0.19538600  0.19618100  1
  N  549  1  0.80847900  0.72467800  0.73792000  1
  N  550  1  0.75174900  0.80707000  0.67083700  1
  N  569  1  0.80847300  0.80554900  0.21007200  1
  N  570  1  0.75180100  0.73848500  0.12764300  1
  N  589  1  0.80846000  0.19675700  0.65688400  1
  N  590  1  0.75169700  0.26382800  0.73927700  1
  N  609  1  0.20055900  0.72684200  0.12518600  1
  N  610  1  0.24367700  0.80237800  0.20434100  1
  N  629  1  0.20049200  0.27560400  0.74163400  1
  N  630  1  0.24360900  0.20008800  0.66245600  1
  N  649  1  0.20055800  0.19288400  0.20781800  1
  N  650  1  0.24369100  0.27213600  0.13238800  1
  N  669  1  0.20052300  0.80929600  0.65906800  1
  N  670  1  0.24365800  0.73019600  0.73465700  1
  O  371  1  0.07079600  0.98223400  0.24457800  1
  O  372  1  0.93017400  0.96033400  0.13223300  1
  O  373  1  0.10400500  0.97025400  0.20566600  1
  O  374  1  0.89532500  0.97189800  0.17053100  1
  O  391  1  0.07062900  0.02019200  0.62234100  1
  O  392  1  0.93012200  0.04209000  0.73476800  1
  O  393  1  0.10386900  0.03219300  0.66123000  1
  O  394  1  0.89523000  0.03050200  0.69649800  1
  O  411  1  0.07063500  0.69006600  0.91449800  1
  O  412  1  0.93011200  0.80248100  0.89262100  1
  O  413  1  0.10387300  0.72895800  0.90249800  1
  O  414  1  0.89523000  0.76420500  0.90420200  1
  O  431  1  0.07086900  0.31228200  0.95245200  1
  O  432  1  0.93019300  0.19996900  0.97438000  1
  O  433  1  0.10405300  0.27336200  0.96444100  1
  O  434  1  0.89536000  0.23826900  0.96280500  1
  O  451  1  0.56604700  0.47985000  0.74612300  1
  O  452  1  0.42568400  0.46302500  0.63274600  1
  O  453  1  0.59876500  0.46583800  0.70768300  1
  O  454  1  0.39129200  0.47661400  0.67059600  1
  O  471  1  0.56653100  0.52256700  0.12097400  1
  O  472  1  0.42579800  0.53943500  0.23412200  1
  O  473  1  0.59910600  0.53659400  0.15946700  1
  O  474  1  0.39151600  0.52582800  0.19623200  1
  O  491  1  0.56624200  0.18864400  0.41213200  1
  O  492  1  0.42568400  0.30190000  0.39526200  1
  O  493  1  0.59888800  0.22711200  0.39811100  1
  O  494  1  0.39135100  0.26402800  0.40886000  1
  O  511  1  0.56644300  0.81375800  0.45483300  1
  O  512  1  0.42578800  0.70055800  0.47166900  1
  O  513  1  0.59905400  0.77527500  0.46884600  1
  O  514  1  0.39148700  0.73844800  0.45807700  1
  O  531  1  0.83209300  0.29942500  0.13862400  1
  O  532  1  0.71644900  0.18196400  0.19092700  1
  O  533  1  0.78841200  0.28657500  0.10554000  1
  O  534  1  0.75978300  0.19391700  0.22449700  1
  O  551  1  0.83216700  0.70311400  0.72847800  1
  O  552  1  0.71634900  0.82044100  0.67606100  1
  O  553  1  0.78835700  0.71592000  0.76149600  1
  O  554  1  0.75978600  0.80856200  0.64253100  1
  O  571  1  0.83208000  0.79607300  0.23166400  1
  O  572  1  0.71645600  0.74373600  0.11421600  1
  O  573  1  0.78840900  0.82915800  0.21880000  1
  O  574  1  0.75977900  0.71016800  0.12618700  1
  O  591  1  0.83215100  0.20620500  0.63532300  1
  O  592  1  0.71629700  0.25860100  0.75264600  1
  O  593  1  0.78834700  0.17318100  0.64812200  1
  O  594  1  0.75972700  0.29213600  0.74077200  1
  O  611  1  0.17853200  0.70316200  0.13082500  1
  O  612  1  0.27809300  0.81776400  0.20237000  1
  O  613  1  0.22326700  0.72210200  0.10164400  1
  O  614  1  0.23328300  0.80001600  0.23219600  1
  O  631  1  0.17853500  0.29931000  0.73596700  1
  O  632  1  0.27797200  0.18464600  0.66444500  1
  O  633  1  0.22313100  0.28030800  0.76521500  1
  O  634  1  0.23328600  0.20250200  0.63459300  1
  O  651  1  0.17853500  0.19850000  0.23150400  1
  O  652  1  0.27810100  0.27018300  0.11699100  1
  O  653  1  0.22325000  0.16932900  0.21252600  1
  O  654  1  0.23330800  0.29999100  0.13479200  1
  O  671  1  0.17855900  0.80361000  0.63537200  1
  O  672  1  0.27802800  0.73219900  0.75008800  1
  O  673  1  0.22316700  0.83287000  0.65433800  1
  O  674  1  0.23333200  0.70232900  0.73227400  1
