# generated using pymatgen
data_Ba2P8H51C58N3O32
_symmetry_space_group_name_H-M   'P 1'
_cell_length_a   8.31772000
_cell_length_b   12.67627000
_cell_length_c   18.68934000
_cell_angle_alpha   98.88892000
_cell_angle_beta   91.60402000
_cell_angle_gamma   98.27567000
_symmetry_Int_Tables_number   1
_chemical_formula_structural   Ba2P8H51C58N3O32
_chemical_formula_sum   'Ba2 P8 H51 C58 N3 O32'
_cell_volume   1924.07590539
_cell_formula_units_Z   1
loop_
 _symmetry_equiv_pos_site_id
 _symmetry_equiv_pos_as_xyz
  1  'x, y, z'
loop_
 _atom_site_type_symbol
 _atom_site_label
 _atom_site_symmetry_multiplicity
 _atom_site_fract_x
 _atom_site_fract_y
 _atom_site_fract_z
 _atom_site_occupancy
  Ba  Ba0  1  0.85278000  0.54834000  0.46507000  1
  Ba  Ba1  1  0.33706000  0.45175000  0.53494000  1
  P  P2  1  0.04104000  0.39477000  0.33633000  1
  P  P3  1  0.67288000  0.75403000  0.55610000  1
  P  P4  1  0.13799000  0.82167000  0.39807000  1
  P  P5  1  0.14867000  0.60532000  0.66368000  1
  P  P6  1  0.06717000  0.17231000  0.58950000  1
  P  P7  1  0.63034000  0.61081000  0.27503000  1
  P  P8  1  0.51791000  0.23142000  0.43769000  1
  P  P9  1  0.55232000  0.39241000  0.72624000  1
  H  H10  1  0.61879000  0.85886000  0.33142000  1
  H  H11  1  0.42770000  0.92603000  0.25104000  1
  H  H12  1  0.62002000  0.92091000  0.20915000  1
  H  H13  1  0.96837000  0.69959000  0.28224000  1
  H  H14  1  0.17694000  0.68476000  0.26490000  1
  H  H15  1  0.00078000  0.67447000  0.15199000  1
  H  H16  1  0.96312000  0.80979000  0.18184000  1
  H  H17  1  0.40100000  0.81144000  0.64904000  1
  H  H18  1  0.27681000  0.72799000  0.57518000  1
  H  H19  1  0.15119000  0.92673000  0.65327000  1
  H  H20  1  0.31191000  0.94406000  0.59093000  1
  H  H21  1  0.12157000  0.86279000  0.56062000  1
  H  H22  1  0.82342000  0.26030000  0.38422000  1
  H  H23  1  0.97313000  0.17694000  0.40302000  1
  H  H24  1  0.71404000  0.06793000  0.34428000  1
  H  H25  1  0.73807000  0.13843000  0.26772000  1
  H  H26  1  0.84008000  0.68323000  0.66155000  1
  H  H27  1  0.62824000  0.64898000  0.68132000  1
  H  H28  1  0.89091000  0.82006000  0.76915000  1
  H  H29  1  0.79598000  0.69652000  0.79594000  1
  H  H30  1  0.44881000  0.75838000  0.29884000  1
  H  H31  1  0.45069000  0.81744000  0.17856000  1
  H  H32  1  0.34961000  0.31435000  0.33748000  1
  H  H33  1  0.56346000  0.34896000  0.32095000  1
  H  H34  1  0.30926000  0.18521000  0.22282000  1
  H  H35  1  0.39724000  0.31683000  0.20546000  1
  H  H36  1  0.52348000  0.21322000  0.20665000  1
  H  H37  1  0.16680000  0.78512000  0.16193000  1
  H  H38  1  0.23866000  0.26368000  0.72159000  1
  H  H39  1  0.03485000  0.28241000  0.73158000  1
  H  H40  1  0.15277000  0.09849000  0.79745000  1
  H  H41  1  0.46775000  0.18509000  0.65068000  1
  H  H42  1  0.49373000  0.07363000  0.78425000  1
  H  H43  1  0.49703000  0.00394000  0.69258000  1
  H  H44  1  0.32547000  0.06404000  0.71919000  1
  H  H45  1  0.64080000  0.33266000  0.11199000  1
  H  H46  1  0.53156000  0.35385000  0.99305000  1
  H  H47  1  0.82587000  0.48585000  0.65663000  1
  H  H48  1  0.57348000  0.40680000  0.87466000  1
  H  H49  1  0.86898000  0.35372000  0.19960000  1
  H  H50  1  0.31488000  0.65253000  0.80022000  1
  H  H51  1  0.53743000  0.68242000  0.89092000  1
  H  H52  1  0.64163000  0.67253000  0.01264000  1
  H  H53  1  0.59956000  0.61972000  0.13024000  1
  H  H54  1  0.36236000  0.51260000  0.34398000  1
  H  H55  1  0.33018000  0.03306000  0.41759000  1
  H  H56  1  0.87492000  0.95656000  0.57164000  1
  H  H57  1  0.82313000  0.26207000  0.51592000  1
  H  H58  1  0.38483000  0.72223000  0.46313000  1
  H  H59  1  0.00039000  0.05636000  0.24023000  1
  H  H60  1  0.52309000  0.80654000  0.77298000  1
  C  C61  1  0.51206000  0.87155000  0.22692000  1
  C  C62  1  0.08305000  0.73800000  0.26321000  1
  C  C63  1  0.05201000  0.75313000  0.18502000  1
  C  C64  1  0.27550000  0.78689000  0.62555000  1
  C  C65  1  0.21140000  0.88627000  0.60676000  1
  C  C66  1  0.90584000  0.20560000  0.35946000  1
  C  C67  1  0.80428000  0.10980000  0.31160000  1
  C  C68  1  0.73301000  0.71509000  0.68535000  1
  C  C69  1  0.77609000  0.76197000  0.76517000  1
  C  C70  1  0.56188000  0.80438000  0.28223000  1
  C  C71  1  0.45702000  0.28375000  0.31301000  1
  C  C72  1  0.41935000  0.24757000  0.23200000  1
  C  C73  1  0.11834000  0.22195000  0.73106000  1
  C  C74  1  0.11931000  0.18090000  0.80510000  1
  C  C75  1  0.53219000  0.18028000  0.70273000  1
  C  C76  1  0.45793000  0.07447000  0.72666000  1
  C  C77  1  0.98467000  0.46413000  0.05094000  1
  C  C78  1  0.88426000  0.41100000  0.09796000  1
  C  C79  1  0.72088000  0.37190000  0.07614000  1
  C  C80  1  0.65828000  0.38431000  0.00817000  1
  C  C81  1  0.75891000  0.43324000  0.95971000  1
  C  C82  1  0.92262000  0.47377000  0.98113000  1
  C  C83  1  0.69976000  0.43805000  0.88934000  1
  C  C84  1  0.80454000  0.47615000  0.83758000  1
  C  C85  1  0.96768000  0.52149000  0.85991000  1
  C  C86  1  0.02499000  0.52170000  0.93234000  1
  C  C87  1  0.75414000  0.46466000  0.76338000  1
  C  C88  1  0.86503000  0.49798000  0.71340000  1
  C  C89  1  0.02274000  0.54987000  0.73488000  1
  C  C90  1  0.07524000  0.56327000  0.80953000  1
  C  C91  1  0.14750000  0.50579000  0.07318000  1
  C  C92  1  0.20780000  0.49990000  0.14413000  1
  C  C93  1  0.10455000  0.45034000  0.19289000  1
  C  C94  1  0.94707000  0.39951000  0.16656000  1
  C  C95  1  0.23308000  0.61375000  0.83530000  1
  C  C96  1  0.29141000  0.61054000  0.90609000  1
  C  C97  1  0.18779000  0.56366000  0.95471000  1
  C  C98  1  0.24890000  0.55576000  0.02497000  1
  C  C99  1  0.45467000  0.64931000  0.92805000  1
  C  C100  1  0.51467000  0.64246000  0.99746000  1
  C  C101  1  0.41273000  0.59593000  0.04632000  1
  C  C102  1  0.37087000  0.54473000  0.16633000  1
  C  C103  1  0.47282000  0.58910000  0.11596000  1
  C  C104  1  0.42570000  0.54642000  0.23887000  1
  C  C105  1  0.31939000  0.50678000  0.28810000  1
  C  C106  1  0.16161000  0.45625000  0.26652000  1
  C  C107  1  0.77474000  0.17754000  0.51349000  1
  C  C108  1  0.43313000  0.80711000  0.46814000  1
  C  C109  1  0.40356000  0.98389000  0.44268000  1
  C  C110  1  0.34072000  0.87567000  0.44017000  1
  C  C111  1  0.58178000  0.84747000  0.50616000  1
  C  C112  1  0.64856000  0.95833000  0.50960000  1
  C  C113  1  0.55716000  0.02688000  0.47703000  1
  C  C114  1  0.62101000  0.13715000  0.48076000  1
  C  C115  1  0.86877000  0.11108000  0.54260000  1
  C  C116  1  0.80359000  0.00302000  0.54338000  1
  C  C117  1  0.91018000  0.03247000  0.27782000  1
  C  C118  1  0.64402000  0.81892000  0.79909000  1
  N  N119  1  0.23826000  0.25041000  0.85710000  1
  N  N120  1  0.95867000  0.17332000  0.83517000  1
  N  N121  1  0.70410000  0.17916000  0.69136000  1
  O  O122  1  0.87309000  0.42589000  0.32514000  1
  O  O123  1  0.12242000  0.43437000  0.41438000  1
  O  O124  1  0.65950000  0.62710000  0.36881000  1
  O  O125  1  0.76262000  0.54805000  0.24118000  1
  O  O126  1  0.01883000  0.25444000  0.31652000  1
  O  O127  1  0.67599000  0.73996000  0.25206000  1
  O  O128  1  0.84820000  0.76819000  0.53453000  1
  O  O129  1  0.08116000  0.68595000  0.40481000  1
  O  O130  1  0.00405000  0.88358000  0.43220000  1
  O  O131  1  0.69375000  0.79762000  0.64968000  1
  O  O132  1  0.13525000  0.83822000  0.30659000  1
  O  O133  1  0.31661000  0.57414000  0.67490000  1
  O  O134  1  0.06729000  0.56572000  0.58563000  1
  O  O135  1  0.53021000  0.37299000  0.63120000  1
  O  O136  1  0.18034000  0.74647000  0.67856000  1
  O  O137  1  0.61134000  0.36629000  0.46363000  1
  O  O138  1  0.10855000  0.31414000  0.59520000  1
  O  O139  1  0.20686000  0.12210000  0.55128000  1
  O  O140  1  0.07613000  0.13301000  0.67552000  1
  O  O141  1  0.57837000  0.63380000  0.53638000  1
  O  O142  1  0.34151000  0.23185000  0.46551000  1
  O  O143  1  0.49128000  0.19497000  0.34353000  1
  O  O144  1  0.41486000  0.45342000  0.75664000  1
  O  O145  1  0.51214000  0.26710000  0.75720000  1
  O  O146  1  0.89431000  0.94148000  0.29223000  1
  O  O147  1  0.67037000  0.87700000  0.85791000  1
  O  O148  1  0.34760000  0.20903000  0.89024000  1
  O  O149  1  0.23409000  0.35344000  0.87181000  1
  O  O150  1  0.88825000  0.08177000  0.85069000  1
  O  O151  1  0.88883000  0.25861000  0.85062000  1
  O  O152  1  0.78590000  0.25768000  0.66469000  1
  O  O153  1  0.77329000  0.09680000  0.70206000  1
