# generated using pymatgen
data_H20C37N8
_symmetry_space_group_name_H-M   'P 1'
_cell_length_a   27.05405875
_cell_length_b   27.05405875
_cell_length_c   27.05405875
_cell_angle_alpha   108.46279196
_cell_angle_beta   108.46279196
_cell_angle_gamma   111.50746884
_symmetry_Int_Tables_number   1
_chemical_formula_structural   H20C37N8
_chemical_formula_sum   'H80 C148 N32'
_cell_volume   15228.67684267
_cell_formula_units_Z   4
loop_
 _symmetry_equiv_pos_site_id
 _symmetry_equiv_pos_as_xyz
  1  'x, y, z'
loop_
 _atom_site_type_symbol
 _atom_site_label
 _atom_site_symmetry_multiplicity
 _atom_site_fract_x
 _atom_site_fract_y
 _atom_site_fract_z
 _atom_site_occupancy
  C  1  1  0.65188625  0.94183875  0.71181300  1
  C  2  1  0.69516875  0.94016425  0.75335600  1
  C  3  1  0.75823700  0.97375650  0.77574050  1
  C  4  1  0.79562700  0.96601600  0.81759500  1
  C  5  1  0.61337400  0.97792250  0.64748850  1
  C  6  1  0.66301650  0.98249800  0.68939550  1
  C  22  1  0.91342950  0.97861650  0.95957750  1
  C  23  1  0.96139800  0.03160350  0.01425200  1
  C  25  1  0.85718675  0.97262725  0.93110300  1
  C  28  1  0.48407175  0.95364475  0.50549650  1
  C  29  1  0.48228525  0.94687925  0.45077700  1
  C  31  1  0.50645350  0.92578300  0.53392850  1
  C  45  1  0.77133600  0.92720600  0.83923150  1
  C  46  1  0.55296200  0.93189300  0.62581500  1
  C  53  1  0.59342300  0.89815550  0.69596850  1
  C  54  1  0.66740275  0.89753575  0.76922050  1
  C  55  1  0.70661325  0.89109225  0.81317550  1
  C  56  1  0.54297675  0.89331225  0.65197000  1
  C  61  1  0.56780325  0.79780525  0.69604750  1
  C  62  1  0.52533475  0.76997425  0.71204050  1
  C  63  1  0.52355700  0.81319550  0.75353850  1
  C  64  1  0.56703550  0.87169000  0.76924650  1
  C  65  1  0.57171725  0.92208575  0.81314400  1
  C  66  1  0.53320275  0.91203275  0.83936100  1
  C  67  1  0.48740000  0.85156200  0.81784850  1
  C  68  1  0.48299400  0.80197400  0.77605350  1
  C  69  1  0.49185075  0.70690075  0.68967700  1
  C  70  1  0.49953000  0.66956750  0.64771000  1
  C  71  1  0.53815450  0.69392200  0.62593700  1
  C  72  1  0.57416675  0.75865025  0.65196450  1
  C  85  1  0.59889925  0.86629925  0.73260550  1
  C  197  1  0.38017500  0.18481850  0.26927350  1
  C  198  1  0.42294500  0.21256900  0.25353950  1
  C  199  1  0.42461475  0.16927825  0.21200650  1
  C  200  1  0.38075525  0.11082325  0.19599300  1
  C  201  1  0.37583250  0.06036550  0.15192800  1
  C  202  1  0.41443225  0.07033375  0.12579250  1
  C  203  1  0.46061875  0.13072075  0.14761150  1
  C  204  1  0.46528025  0.18037725  0.18958950  1
  C  205  1  0.45666175  0.27564275  0.27601550  1
  C  206  1  0.44887500  0.31304950  0.31780350  1
  C  207  1  0.40993300  0.28877650  0.33933500  1
  C  208  1  0.37365975  0.22404825  0.31314050  1
  C  209  1  0.28039300  0.08518850  0.19602950  1
  C  210  1  0.25257100  0.04263900  0.21194850  1
  C  211  1  0.29579175  0.04084525  0.25342800  1
  C  212  1  0.35428175  0.08442725  0.26923950  1
  C  213  1  0.28458150  0.00024850  0.27590950  1
  C  214  1  0.33417400  0.00470800  0.31775650  1
  C  215  1  0.39462675  0.05060025  0.33935150  1
  C  216  1  0.40468275  0.08914725  0.31317150  1
  C  217  1  0.24122300  0.09162300  0.15202750  1
  C  218  1  0.17649000  0.05549700  0.12590450  1
  C  219  1  0.15215500  0.01681350  0.14763750  1
  C  220  1  0.18949600  0.00907250  0.18952850  1
  C  233  1  0.34888875  0.11631025  0.23261800  1
  C  353  1  0.98640450  0.95116400  0.95089050  1
  C  355  1  0.03435575  0.00413925  0.00557250  1
  C  357  1  0.09057025  0.01011225  0.03409300  1
  C  359  1  0.46548150  0.03542100  0.51428050  1
  C  364  1  0.46371250  0.02866550  0.45956750  1
  C  367  1  0.44113625  0.05636775  0.43109350  1
  C  371  1  0.42937200  0.99973300  0.95072150  1
  C  373  1  0.51112850  0.98111800  0.95951200  1
  C  374  1  0.51790100  0.98291750  0.01423950  1
  C  376  1  0.43614300  0.00153450  0.00544700  1
  C  379  1  0.40824800  0.02388750  0.03385850  1
  C  381  1  0.53881875  0.95855225  0.93099850  1
  C  383  1  0.51390525  0.47895225  0.51418100  1
  C  385  1  0.48645475  0.55191325  0.50545800  1
  C  386  1  0.43350500  0.50395950  0.45076300  1
  C  388  1  0.46093450  0.43098600  0.45948550  1
  C  391  1  0.45506175  0.37483375  0.43097000  1
  C  393  1  0.49254025  0.60822975  0.53389700  1
  C  521  1  0.45066625  0.74061875  0.30937300  1
  C  522  1  0.49394875  0.73894425  0.35091600  1
  C  523  1  0.55701700  0.77253650  0.37330050  1
  C  524  1  0.59440700  0.76479600  0.41515500  1
  C  525  1  0.41215400  0.77670250  0.24504850  1
  C  526  1  0.46179650  0.78127800  0.28695550  1
  C  542  1  0.71220950  0.77739650  0.55713750  1
  C  543  1  0.76017800  0.83038350  0.61181200  1
  C  545  1  0.65596675  0.77140725  0.52866300  1
  C  548  1  0.28285175  0.75242475  0.10305650  1
  C  549  1  0.28106525  0.74565925  0.04833700  1
  C  551  1  0.30523350  0.72456300  0.13148850  1
  C  565  1  0.57011600  0.72598600  0.43679150  1
  C  566  1  0.35174200  0.73067300  0.22337500  1
  C  573  1  0.39220300  0.69693550  0.29352850  1
  C  574  1  0.46618275  0.69631575  0.36678050  1
  C  575  1  0.50539325  0.68987225  0.41073550  1
  C  576  1  0.34175675  0.69209225  0.24953000  1
  C  581  1  0.36658325  0.59658525  0.29360750  1
  C  582  1  0.32411475  0.56875425  0.30960050  1
  C  583  1  0.32233700  0.61197550  0.35109850  1
  C  584  1  0.36581550  0.67047000  0.36680650  1
  C  585  1  0.37049725  0.72086575  0.41070400  1
  C  586  1  0.33198275  0.71081275  0.43692100  1
  C  587  1  0.28618000  0.65034200  0.41540850  1
  C  588  1  0.28177400  0.60075400  0.37361350  1
  C  589  1  0.29063075  0.50568075  0.28723700  1
  C  590  1  0.29831000  0.46834750  0.24527000  1
  C  591  1  0.33693450  0.49270200  0.22349700  1
  C  592  1  0.37294675  0.55743025  0.24952450  1
  C  605  1  0.39767925  0.66507925  0.33016550  1
  C  717  1  0.17895510  0.98359860  0.86683370  1
  C  718  1  0.22172510  0.01134910  0.85109970  1
  C  719  1  0.22339485  0.96805835  0.80956670  1
  C  720  1  0.17953525  0.90960325  0.79355300  1
  C  721  1  0.17461250  0.85914550  0.74948800  1
  C  722  1  0.21321225  0.86911375  0.72335250  1
  C  723  1  0.25939875  0.92950075  0.74517150  1
  C  724  1  0.26406025  0.97915725  0.78714950  1
  C  725  1  0.25544185  0.07442285  0.87357570  1
  C  726  1  0.24765510  0.11182960  0.91536370  1
  C  727  1  0.20871310  0.08755660  0.93689520  1
  C  728  1  0.17243985  0.02282835  0.91070070  1
  C  729  1  0.07917300  0.88396850  0.79358950  1
  C  730  1  0.05135110  0.84141910  0.80950870  1
  C  731  1  0.09457185  0.83962535  0.85098820  1
  C  732  1  0.15306185  0.88320735  0.86679970  1
  C  733  1  0.08336160  0.79902860  0.87346970  1
  C  734  1  0.13295410  0.80348810  0.91531670  1
  C  735  1  0.19340685  0.84938035  0.93691170  1
  C  736  1  0.20346285  0.88792735  0.91073170  1
  C  737  1  0.04000300  0.89040300  0.74958750  1
  C  738  1  0.97527000  0.85427700  0.72346450  1
  C  739  1  0.95093500  0.81559350  0.74519750  1
  C  740  1  0.98827600  0.80785250  0.78708850  1
  C  753  1  0.14766885  0.91509035  0.83017820  1
  C  873  1  0.78518450  0.74994400  0.54845050  1
  C  875  1  0.83313575  0.80291925  0.60313250  1
  C  877  1  0.88935025  0.80889225  0.63165300  1
  C  879  1  0.26426150  0.83420100  0.11184050  1
  C  884  1  0.26249250  0.82744550  0.05712750  1
  C  887  1  0.23991625  0.85514775  0.02865350  1
  C  891  1  0.22815200  0.79851300  0.54828150  1
  C  893  1  0.30990850  0.77989800  0.55707200  1
  C  894  1  0.31668100  0.78169750  0.61179950  1
  C  896  1  0.23492300  0.80031450  0.60300700  1
  C  899  1  0.20702800  0.82266750  0.63141850  1
  C  901  1  0.33759875  0.75733225  0.52855850  1
  C  903  1  0.31268525  0.27773225  0.11174100  1
  C  905  1  0.28523475  0.35069325  0.10301800  1
  C  906  1  0.23228500  0.30273950  0.04832300  1
  C  908  1  0.25971450  0.22976600  0.05704550  1
  C  911  1  0.25384175  0.17361375  0.02853000  1
  C  913  1  0.29132025  0.40700975  0.13145700  1
  H  13  1  0.32537217  0.97430267  0.33337633  1
  H  14  1  0.24152475  0.96717375  0.26199550  1
  H  15  1  0.17030700  0.98004200  0.20353150  1
  H  16  1  0.10613275  0.99246875  0.13205100  1
  H  24  1  0.95398000  0.06310350  0.03827100  1
  H  26  1  0.85716175  0.01151275  0.94237600  1
  H  30  1  0.48963225  0.91535125  0.42668950  1
  H  32  1  0.53408075  0.91452925  0.52263550  1
  H  73  1  0.62211525  0.00835225  0.63189400  1
  H  74  1  0.70605025  0.01567525  0.70337550  1
  H  75  1  0.77738425  0.00282325  0.76175200  1
  H  76  1  0.84164125  0.99036925  0.83315300  1
  H  77  1  0.68824200  0.86069700  0.82623750  1
  H  78  1  0.49954050  0.86183350  0.63891150  1
  H  79  1  0.60300275  0.96554125  0.82605250  1
  H  80  1  0.45698400  0.84274450  0.83345150  1
  H  81  1  0.44996475  0.75891025  0.76218300  1
  H  82  1  0.60440150  0.77706400  0.63876350  1
  H  83  1  0.46286125  0.68770425  0.70371300  1
  H  84  1  0.47522825  0.62354425  0.63213300  1
  H  225  1  0.44813800  0.12050900  0.32615750  1
  H  226  1  0.25963000  0.12197000  0.13893500  1
  H  227  1  0.34425300  0.01693550  0.13877450  1
  H  228  1  0.49103600  0.13944100  0.13199950  1
  H  229  1  0.49855100  0.22339700  0.20365550  1
  H  230  1  0.34311450  0.20568700  0.32605800  1
  H  231  1  0.48582875  0.29478675  0.26211400  1
  H  232  1  0.47329400  0.35906450  0.33338750  1
  H  356  1  0.99382675  0.91966425  0.92687550  1
  H  358  1  0.09067875  0.97126475  0.02282950  1
  H  365  1  0.45807450  0.06690600  0.53834000  1
  H  368  1  0.41367525  0.06788225  0.44246800  1
  H  377  1  0.39785025  0.00708775  0.92663450  1
  H  378  1  0.54937925  0.97550175  0.03829850  1
  H  380  1  0.39709125  0.05159675  0.02264900  1
  H  382  1  0.55027500  0.93110200  0.94248450  1
  H  389  1  0.54541425  0.47154225  0.53819850  1
  H  390  1  0.40204575  0.51139375  0.42670400  1
  H  392  1  0.49393350  0.37474650  0.44242800  1
  H  394  1  0.45365950  0.60823600  0.52276550  1
  H  533  1  0.12414710  0.77307760  0.93092620  1
  H  534  1  0.04030485  0.76595385  0.85955570  1
  H  535  1  0.96908710  0.77882210  0.80109170  1
  H  536  1  0.90491275  0.79124875  0.72961100  1
  H  544  1  0.75276000  0.86188350  0.63583100  1
  H  546  1  0.65594175  0.81029275  0.53993600  1
  H  550  1  0.28841225  0.71413125  0.02424950  1
  H  552  1  0.33286075  0.71330925  0.12019550  1
  H  593  1  0.42089525  0.80713225  0.22945400  1
  H  594  1  0.50483025  0.81445525  0.30093550  1
  H  595  1  0.57616425  0.80160325  0.35931200  1
  H  596  1  0.64042125  0.78914925  0.43071300  1
  H  597  1  0.48702200  0.65947700  0.42379750  1
  H  598  1  0.29832050  0.66061350  0.23647150  1
  H  599  1  0.40178275  0.76432125  0.42361250  1
  H  600  1  0.25576400  0.64152450  0.43101150  1
  H  601  1  0.24874475  0.55769025  0.35974300  1
  H  602  1  0.40318150  0.57584400  0.23632350  1
  H  603  1  0.26164125  0.48648425  0.30127300  1
  H  604  1  0.27400825  0.42232425  0.22969300  1
  H  745  1  0.24691810  0.91928910  0.92371770  1
  H  746  1  0.05841000  0.92075000  0.73649500  1
  H  747  1  0.14303300  0.81571550  0.73633450  1
  H  748  1  0.28981600  0.93822100  0.72955950  1
  H  749  1  0.29733110  0.02217710  0.80121570  1
  H  750  1  0.14189460  0.00446710  0.92361820  1
  H  751  1  0.28460885  0.09356685  0.85967420  1
  H  752  1  0.27207410  0.15784460  0.93094770  1
  H  876  1  0.79260675  0.71844425  0.52443550  1
  H  878  1  0.88945875  0.77004475  0.62038950  1
  H  885  1  0.25685450  0.86568600  0.13590000  1
  H  888  1  0.21245525  0.86666225  0.04002800  1
  H  897  1  0.19663025  0.80586775  0.52419450  1
  H  898  1  0.34815925  0.77428175  0.63585850  1
  H  900  1  0.19587125  0.85037675  0.62020900  1
  H  902  1  0.34905500  0.72988200  0.54004450  1
  H  909  1  0.34419425  0.27032225  0.13575850  1
  H  910  1  0.20082575  0.31017375  0.02426400  1
  H  912  1  0.29271350  0.17352650  0.03998800  1
  H  914  1  0.25243950  0.40701600  0.12032550  1
  N  21  1  0.92898700  0.94127450  0.92984550  1
  N  27  1  0.47657750  0.99900500  0.53529350  1
  N  47  1  0.81406225  0.92573325  0.87960850  1
  N  48  1  0.51107875  0.93420925  0.58544050  1
  N  86  1  0.53950550  0.65123000  0.58539900  1
  N  87  1  0.53063250  0.95387050  0.87951750  1
  N  234  1  0.43644950  0.04808500  0.37958450  1
  N  235  1  0.40826600  0.33152950  0.37948100  1
  N  236  1  0.41667750  0.02844350  0.08534950  1
  N  237  1  0.13376775  0.05700975  0.08556500  1
  N  354  1  0.01882100  0.04149950  0.03531000  1
  N  363  1  0.47117175  0.98328475  0.42975750  1
  N  372  1  0.46577025  0.98859925  0.92970050  1
  N  375  1  0.48148725  0.99402525  0.03524900  1
  N  384  1  0.52380650  0.53637400  0.53521050  1
  N  387  1  0.42362250  0.44654200  0.42971750  1
  N  541  1  0.72776700  0.74005450  0.52740550  1
  N  547  1  0.27535750  0.79778500  0.13285350  1
  N  567  1  0.61284225  0.72451325  0.47716850  1
  N  568  1  0.30985875  0.73298925  0.18300050  1
  N  606  1  0.33828550  0.45001000  0.18295900  1
  N  607  1  0.32941250  0.75265050  0.47707750  1
  N  754  1  0.23522960  0.84686510  0.97714470  1
  N  755  1  0.20704610  0.13030960  0.97704120  1
  N  756  1  0.21545750  0.82722350  0.68290950  1
  N  757  1  0.93254775  0.85578975  0.68312500  1
  N  874  1  0.81760100  0.84027950  0.63287000  1
  N  883  1  0.26995175  0.78206475  0.02731750  1
  N  892  1  0.26455025  0.78737925  0.52726050  1
  N  895  1  0.28026725  0.79280525  0.63280900  1
  N  904  1  0.32258650  0.33515400  0.13277050  1
  N  907  1  0.22240250  0.24532200  0.02727750  1
