# generated using pymatgen
data_TbH8C12(NO3)3
_symmetry_space_group_name_H-M   'P 1'
_cell_length_a   10.20866000
_cell_length_b   11.46550000
_cell_length_c   17.56163000
_cell_angle_alpha   90.03513000
_cell_angle_beta   90.04512000
_cell_angle_gamma   109.56903000
_symmetry_Int_Tables_number   1
_chemical_formula_structural   TbH8C12(NO3)3
_chemical_formula_sum   'Tb4 H32 C48 N12 O36'
_cell_volume   1936.81057239
_cell_formula_units_Z   4
loop_
 _symmetry_equiv_pos_site_id
 _symmetry_equiv_pos_as_xyz
  1  'x, y, z'
loop_
 _atom_site_type_symbol
 _atom_site_label
 _atom_site_symmetry_multiplicity
 _atom_site_fract_x
 _atom_site_fract_y
 _atom_site_fract_z
 _atom_site_occupancy
  Tb  Tb0  1  0.01070000  0.17728000  0.50732000  1
  Tb  Tb1  1  0.98712000  0.32003000  0.00801000  1
  Tb  Tb2  1  0.98791000  0.82161000  0.49065000  1
  Tb  Tb3  1  0.01248000  0.68547000  0.99220000  1
  H  H4  1  0.89917000  0.29415000  0.82055000  1
  H  H5  1  0.09740000  0.65020000  0.71395000  1
  H  H6  1  0.84769000  0.20266000  0.68885000  1
  H  H7  1  0.04364000  0.54297000  0.58732000  1
  H  H8  1  0.42814000  0.94419000  0.38870000  1
  H  H9  1  0.46902000  0.29264000  0.49669000  1
  H  H10  1  0.69132000  0.02150000  0.37264000  1
  H  H11  1  0.72779000  0.35221000  0.48095000  1
  H  H12  1  0.10213000  0.20589000  0.32066000  1
  H  H13  1  0.89998000  0.85063000  0.21312000  1
  H  H14  1  0.15410000  0.29756000  0.18894000  1
  H  H15  1  0.95433000  0.95829000  0.08670000  1
  H  H16  1  0.56991000  0.55661000  0.88931000  1
  H  H17  1  0.53385000  0.20929000  0.99695000  1
  H  H18  1  0.30659000  0.47686000  0.87346000  1
  H  H19  1  0.27477000  0.14688000  0.98089000  1
  H  H20  1  0.10326000  0.70966000  0.18011000  1
  H  H21  1  0.90201000  0.35226000  0.28467000  1
  H  H22  1  0.15550000  0.79861000  0.31262000  1
  H  H23  1  0.95608000  0.45743000  0.41207000  1
  H  H24  1  0.57222000  0.05507000  0.61045000  1
  H  H25  1  0.52978000  0.70628000  0.50254000  1
  H  H26  1  0.30922000  0.97838000  0.62703000  1
  H  H27  1  0.27133000  0.64692000  0.51915000  1
  H  H28  1  0.89709000  0.79185000  0.67908000  1
  H  H29  1  0.10007000  0.14979000  0.78316000  1
  H  H30  1  0.84490000  0.70406000  0.81172000  1
  H  H31  1  0.04535000  0.04598000  0.91073000  1
  H  H32  1  0.42787000  0.44679000  0.11044000  1
  H  H33  1  0.46798000  0.79524000  0.00301000  1
  H  H34  1  0.69126000  0.52442000  0.12645000  1
  H  H35  1  0.72672000  0.85509000  0.01880000  1
  C  C36  1  0.03207000  0.53988000  0.85481000  1
  C  C37  1  0.00536000  0.48027000  0.77808000  1
  C  C38  1  0.93397000  0.35283000  0.77079000  1
  C  C39  1  0.04475000  0.55062000  0.71149000  1
  C  C40  1  0.90380000  0.29978000  0.69943000  1
  C  C41  1  0.01614000  0.49408000  0.64094000  1
  C  C42  1  0.27556000  0.06837000  0.46151000  1
  C  C43  1  0.42825000  0.11280000  0.44382000  1
  C  C44  1  0.49119000  0.03614000  0.40781000  1
  C  C45  1  0.51331000  0.22976000  0.46868000  1
  C  C46  1  0.63386000  0.07530000  0.39874000  1
  C  C47  1  0.65586000  0.26537000  0.46018000  1
  C  C48  1  0.96695000  0.96019000  0.35385000  1
  C  C49  1  0.99388000  0.02023000  0.27753000  1
  C  C50  1  0.06669000  0.14750000  0.27073000  1
  C  C51  1  0.95347000  0.95011000  0.21084000  1
  C  C52  1  0.09717000  0.20064000  0.19951000  1
  C  C53  1  0.98245000  0.00686000  0.14045000  1
  C  C54  1  0.72534000  0.43377000  0.96203000  1
  C  C55  1  0.57232000  0.38882000  0.94442000  1
  C  C56  1  0.50792000  0.46446000  0.90853000  1
  C  C57  1  0.48838000  0.27142000  0.96909000  1
  C  C58  1  0.36510000  0.42392000  0.89949000  1
  C  C59  1  0.34574000  0.23432000  0.96050000  1
  C  C60  1  0.96800000  0.46422000  0.14499000  1
  C  C61  1  0.99547000  0.52318000  0.22174000  1
  C  C62  1  0.06805000  0.65028000  0.22958000  1
  C  C63  1  0.95539000  0.45167000  0.28784000  1
  C  C64  1  0.09858000  0.70191000  0.30125000  1
  C  C65  1  0.98421000  0.50692000  0.35869000  1
  C  C66  1  0.72386000  0.93116000  0.53677000  1
  C  C67  1  0.57140000  0.88645000  0.55516000  1
  C  C68  1  0.50880000  0.96318000  0.59141000  1
  C  C69  1  0.48592000  0.76941000  0.53063000  1
  C  C70  1  0.36620000  0.92427000  0.60080000  1
  C  C71  1  0.34344000  0.73389000  0.53962000  1
  C  C72  1  0.03314000  0.03860000  0.64412000  1
  C  C73  1  0.00594000  0.97863000  0.72047000  1
  C  C74  1  0.93274000  0.85168000  0.72843000  1
  C  C75  1  0.04633000  0.05045000  0.78657000  1
  C  C76  1  0.90200000  0.80063000  0.80024000  1
  C  C77  1  0.01704000  0.99584000  0.85750000  1
  C  C78  1  0.27448000  0.57116000  0.03802000  1
  C  C79  1  0.42744000  0.61536000  0.05561000  1
  C  C80  1  0.49074000  0.53878000  0.09141000  1
  C  C81  1  0.51237000  0.73234000  0.03088000  1
  C  C82  1  0.63350000  0.57810000  0.10050000  1
  C  C83  1  0.65495000  0.76818000  0.03944000  1
  N  N84  1  0.94600000  0.37005000  0.63540000  1
  N  N85  1  0.71492000  0.18807000  0.42628000  1
  N  N86  1  0.22870000  0.40535000  0.46653000  1
  N  N87  1  0.05382000  0.13068000  0.13539000  1
  N  N88  1  0.28513000  0.31067000  0.92679000  1
  N  N89  1  0.77091000  0.09338000  0.96413000  1
  N  N90  1  0.05517000  0.63064000  0.36476000  1
  N  N91  1  0.28457000  0.81145000  0.57349000  1
  N  N92  1  0.77095000  0.59362000  0.53206000  1
  N  N93  1  0.94546000  0.87225000  0.86371000  1
  N  N94  1  0.71432000  0.69112000  0.07333000  1
  N  N95  1  0.23124000  0.91024000  0.03545000  1
  O  O96  1  0.91587000  0.31897000  0.56752000  1
  O  O97  1  0.02309000  0.47161000  0.91335000  1
  O  O98  1  0.05886000  0.65634000  0.85999000  1
  O  O99  1  0.22749000  0.14777000  0.48920000  1
  O  O100  1  0.20895000  0.95378000  0.44995000  1
  O  O101  1  0.85117000  0.22288000  0.41995000  1
  O  O102  1  0.20685000  0.37265000  0.53640000  1
  O  O103  1  0.14213000  0.33543000  0.41734000  1
  O  O104  1  0.32513000  0.49816000  0.44634000  1
  O  O105  1  0.08433000  0.18247000  0.06772000  1
  O  O106  1  0.98039000  0.02844000  0.41295000  1
  O  O107  1  0.93609000  0.84346000  0.35899000  1
  O  O108  1  0.77326000  0.35403000  0.98945000  1
  O  O109  1  0.79192000  0.54830000  0.95059000  1
  O  O110  1  0.14886000  0.27452000  0.92023000  1
  O  O111  1  0.79226000  0.12386000  0.03449000  1
  O  O112  1  0.85731000  0.16574000  0.91612000  1
  O  O113  1  0.67550000  0.00078000  0.94256000  1
  O  O114  1  0.08443000  0.68097000  0.43290000  1
  O  O115  1  0.97632000  0.53229000  0.08646000  1
  O  O116  1  0.94096000  0.34773000  0.13993000  1
  O  O117  1  0.77160000  0.85276000  0.50734000  1
  O  O118  1  0.79086000  0.04545000  0.54943000  1
  O  O119  1  0.14854000  0.77701000  0.58005000  1
  O  O120  1  0.79248000  0.62315000  0.46181000  1
  O  O121  1  0.85730000  0.66645000  0.58027000  1
  O  O122  1  0.67534000  0.50139000  0.55376000  1
  O  O123  1  0.91544000  0.82255000  0.93198000  1
  O  O124  1  0.01964000  0.97137000  0.58437000  1
  O  O125  1  0.06432000  0.15529000  0.63992000  1
  O  O126  1  0.22681000  0.65117000  0.01077000  1
  O  O127  1  0.20777000  0.45667000  0.04938000  1
  O  O128  1  0.85052000  0.72631000  0.08000000  1
  O  O129  1  0.20792000  0.88087000  0.96505000  1
  O  O130  1  0.14278000  0.83976000  0.08348000  1
  O  O131  1  0.33028000  0.99978000  0.05714000  1
