# generated using pymatgen
data_H23C37N6
_symmetry_space_group_name_H-M   'P 1'
_cell_length_a   9.99273333
_cell_length_b   58.20110000
_cell_length_c   58.20110000
_cell_angle_alpha   60.00000000
_cell_angle_beta   89.95730000
_cell_angle_gamma   90.00000000
_symmetry_Int_Tables_number   1
_chemical_formula_structural   H23C37N6
_chemical_formula_sum   'H138 C222 N36'
_cell_volume   29314.13979582
_cell_formula_units_Z   6
loop_
 _symmetry_equiv_pos_site_id
 _symmetry_equiv_pos_as_xyz
  1  'x, y, z'
loop_
 _atom_site_type_symbol
 _atom_site_label
 _atom_site_symmetry_multiplicity
 _atom_site_fract_x
 _atom_site_fract_y
 _atom_site_fract_z
 _atom_site_occupancy
  C  1  1  0.00708900  0.41047100  0.58536133  1
  C  2  1  0.00614900  0.51073200  0.48760067  1
  C  10  1  0.01394500  0.38325000  0.60335667  1
  C  11  1  0.01407900  0.52959000  0.46061767  1
  C  28  1  0.01382000  0.37006200  0.58916067  1
  C  29  1  0.00617000  0.38892100  0.56217767  1
  C  30  1  0.00380300  0.38307400  0.54119467  1
  C  31  1  0.00126100  0.40237200  0.51376633  1
  C  33  1  0.00164100  0.44134000  0.47577667  1
  C  34  1  0.99892500  0.42117200  0.46939833  1
  C  35  1  0.99768400  0.39718600  0.49278733  1
  C  36  1  0.00477400  0.46902300  0.45740767  1
  C  37  1  0.00708500  0.48918200  0.46441633  1
  C  38  1  0.01421500  0.51640500  0.44641967  1
  C  39  1  0.00362200  0.51658300  0.50858000  1
  C  40  1  0.00103000  0.49728600  0.53600833  1
  C  42  1  0.00154600  0.45831700  0.57399633  1
  C  43  1  0.99880000  0.47848600  0.58037400  1
  C  44  1  0.99743500  0.50247200  0.55698667  1
  C  45  1  0.00488000  0.43063400  0.59236533  1
  C  46  1  0.01117800  0.42274300  0.61977867  1
  C  47  1  0.89421900  0.42170500  0.63390900  1
  C  48  1  0.90285800  0.41647600  0.66023133  1
  C  49  1  0.02804100  0.41231200  0.67294233  1
  C  50  1  0.14456400  0.41253900  0.65896333  1
  C  51  1  0.13633900  0.41785300  0.63262933  1
  C  52  1  0.00597000  0.54375300  0.50175067  1
  C  53  1  0.88753600  0.55905400  0.49380067  1
  C  54  1  0.88862600  0.58548400  0.48837867  1
  C  55  1  0.00810700  0.59709100  0.49085233  1
  C  56  1  0.12596200  0.58170700  0.49897633  1
  C  57  1  0.12548100  0.55538800  0.50410500  1
  C  58  1  0.01129400  0.47692300  0.42999100  1
  C  59  1  0.13651400  0.48195200  0.41710000  1
  C  60  1  0.14495000  0.48737100  0.39073100  1
  C  61  1  0.02857000  0.48762600  0.37673200  1
  C  62  1  0.90335100  0.48327300  0.38950633  1
  C  63  1  0.89449400  0.47792100  0.41587067  1
  C  64  1  0.00620600  0.35590800  0.54801267  1
  C  65  1  0.12574700  0.34431000  0.54560567  1
  C  66  1  0.88769900  0.34060700  0.55590533  1
  C  67  1  0.88873000  0.31421400  0.56121133  1
  C  68  1  0.00816700  0.30267000  0.55861267  1
  C  69  1  0.12615700  0.31803600  0.55060033  1
  C  97  1  0.01453600  0.51557600  0.03963733  1
  C  98  1  0.01459100  0.52976700  0.01225433  1
  C  99  1  0.00815500  0.51176200  0.00303367  1
  C  101  1  0.00731500  0.48858300  0.04777067  1
  C  102  1  0.00526300  0.46760000  0.07460233  1
  C  103  1  0.00301700  0.44016900  0.08273933  1
  C  105  1  0.00350800  0.40217800  0.08176400  1
  C  106  1  0.00120100  0.39580100  0.10831033  1
  C  107  1  0.99998400  0.41919000  0.10890633  1
  C  108  1  0.00650400  0.38380700  0.07245033  1
  C  109  1  0.00835100  0.39080800  0.04528267  1
  C  111  1  0.00729500  0.41398700  0.00054633  1
  C  112  1  0.01451200  0.38699800  0.00867433  1
  C  113  1  0.01468600  0.37280600  0.03605700  1
  C  114  1  0.00513500  0.43496967  0.97371367  1
  C  115  1  0.00283300  0.46239800  0.96557867  1
  C  117  1  0.00331200  0.50038700  0.96655600  1
  C  118  1  0.00095600  0.50676400  0.94000867  1
  C  119  1  0.99966600  0.48337400  0.93941333  1
  C  120  1  0.00619600  0.51875900  0.97586833  1
  C  121  1  0.01255400  0.54617400  0.95634233  1
  C  122  1  0.89564500  0.56026500  0.94323767  1
  C  123  1  0.90438200  0.58657900  0.92212200  1
  C  124  1  0.02955700  0.59933900  0.91360567  1
  C  125  1  0.14601100  0.58539500  0.92736933  1
  C  126  1  0.13771500  0.55906700  0.94840467  1
  C  127  1  0.00746600  0.42813500  0.95337533  1
  C  128  1  0.88892600  0.42024000  0.94600100  1
  C  129  1  0.88998600  0.41482600  0.92498633  1
  C  130  1  0.00951800  0.41727300  0.91091033  1
  C  131  1  0.12749900  0.42532800  0.91820433  1
  C  132  1  0.12704800  0.43044300  0.93940333  1
  C  133  1  0.01294900  0.35639000  0.09196467  1
  C  134  1  0.13810500  0.34349500  0.09971333  1
  C  135  1  0.14654800  0.31712300  0.12064967  1
  C  136  1  0.03024100  0.30312200  0.13448833  1
  C  137  1  0.90506900  0.31590600  0.12618733  1
  C  138  1  0.89619600  0.34227000  0.10518033  1
  C  139  1  0.00762100  0.47442500  0.09494700  1
  C  140  1  0.12722100  0.47212600  0.10887600  1
  C  141  1  0.88902000  0.48222200  0.10242200  1
  C  142  1  0.89002500  0.48753900  0.12350200  1
  C  143  1  0.00953800  0.48506533  0.13755967  1
  C  144  1  0.12758200  0.47711200  0.13016100  1
  C  175  1  0.01675300  0.96606800  0.44365733  1
  C  176  1  0.01670200  0.93868400  0.45683867  1
  C  177  1  0.00973700  0.92945200  0.48406367  1
  C  179  1  0.00901600  0.97418700  0.46252267  1
  C  180  1  0.00662600  0.00101500  0.45668300  1
  C  181  1  0.00400300  0.00913900  0.47598600  1
  C  183  1  0.00421800  0.00814500  0.51496033  1
  C  184  1  0.00151100  0.03469200  0.49480033  1
  C  185  1  0.00041100  0.03529900  0.47081000  1
  C  186  1  0.00731500  0.99882400  0.54264367  1
  C  187  1  0.00968200  0.97165500  0.56280067  1
  C  189  1  0.00896700  0.92692100  0.58434067  1
  C  190  1  0.01655200  0.93504200  0.60320433  1
  C  191  1  0.01651300  0.96242500  0.59002300  1
  C  192  1  0.00665500  0.90009200  0.59018367  1
  C  193  1  0.00413200  0.89196800  0.57088200  1
  C  195  1  0.00436300  0.89296300  0.53190767  1
  C  196  1  0.00151500  0.86641400  0.55207033  1
  C  197  1  0.00045500  0.86580700  0.57606133  1
  C  198  1  0.00737100  0.90228500  0.50422133  1
  C  199  1  0.01327000  0.88276600  0.49631967  1
  C  200  1  0.89599600  0.86977900  0.49526700  1
  C  201  1  0.90413200  0.84868100  0.49003433  1
  C  202  1  0.02910100  0.84003300  0.48587467  1
  C  203  1  0.14595200  0.85367100  0.48613267  1
  C  204  1  0.13823200  0.87470800  0.49143033  1
  C  205  1  0.00897700  0.87974633  0.61735233  1
  C  206  1  0.89050300  0.87239000  0.63266967  1
  C  207  1  0.89156700  0.85139400  0.65910633  1
  C  208  1  0.01100300  0.83729400  0.67068467  1
  C  209  1  0.12888400  0.84455300  0.65527733  1
  C  210  1  0.12847300  0.86575800  0.62896600  1
  C  211  1  0.01337000  0.01833500  0.55055367  1
  C  212  1  0.13836000  0.02628600  0.55554100  1
  C  213  1  0.14625100  0.04722200  0.56098500  1
  C  214  1  0.02955600  0.06088500  0.56127300  1
  C  215  1  0.90455800  0.05237100  0.55697200  1
  C  216  1  0.89625600  0.03137200  0.55159400  1
  C  217  1  0.00903300  0.02136900  0.42951600  1
  C  218  1  0.12854400  0.03538800  0.41789000  1
  C  219  1  0.89052800  0.02876700  0.41424600  1
  C  220  1  0.89151700  0.04987200  0.38786300  1
  C  221  1  0.01097800  0.06399500  0.37626900  1
  C  222  1  0.12893000  0.05666800  0.39161667  1
  C  253  1  0.97484900  0.50220600  0.18897100  1
  C  254  1  0.87015100  0.50318900  0.20507900  1
  C  256  1  0.02882600  0.49983600  0.23773200  1
  C  257  1  0.13691500  0.49891367  0.22241567  1
  C  258  1  0.10824400  0.50028700  0.19804000  1
  C  260  1  0.05337400  0.49815800  0.26242400  1
  C  261  1  0.96912400  0.49673200  0.30156800  1
  C  262  1  0.09905600  0.49375900  0.31240300  1
  C  263  1  0.20750200  0.49329800  0.29694800  1
  C  265  1  0.18652700  0.49545500  0.27195800  1
  C  266  1  0.29368800  0.49470400  0.25652600  1
  C  267  1  0.26909400  0.49646733  0.23191733  1
  C  272  1  0.72481700  0.50475000  0.19936767  1
  C  276  1  0.95123700  0.50326400  0.16495800  1
  C  277  1  0.12281800  0.49060700  0.33739800  1
  C  280  1  0.97639400  0.11539100  0.30771900  1
  C  281  1  0.87172200  0.13146600  0.29064200  1
  C  283  1  0.03043700  0.16415000  0.26130000  1
  C  284  1  0.13849600  0.14887200  0.27753500  1
  C  285  1  0.10979000  0.12449900  0.30055100  1
  C  287  1  0.05502600  0.18883100  0.23826400  1
  C  288  1  0.97086500  0.22791000  0.20050433  1
  C  289  1  0.10080800  0.23877300  0.19261433  1
  C  290  1  0.20921600  0.22336500  0.20853567  1
  C  292  1  0.18819200  0.19839500  0.23140100  1
  C  293  1  0.29531900  0.18300400  0.24758367  1
  C  294  1  0.27068200  0.15840700  0.27045300  1
  C  299  1  0.72639300  0.12570400  0.29480400  1
  C  303  1  0.95275200  0.09137500  0.33068000  1
  C  304  1  0.12465100  0.26373000  0.17069933  1
  C  307  1  0.97379800  0.23410400  0.57579033  1
  C  308  1  0.86922200  0.21701300  0.57675067  1
  C  310  1  0.02817100  0.18775300  0.57335700  1
  C  311  1  0.13614400  0.20399100  0.57246333  1
  C  312  1  0.10727300  0.22697300  0.57386733  1
  C  314  1  0.05292300  0.16477300  0.57162500  1
  C  315  1  0.96897900  0.12710200  0.57009500  1
  C  316  1  0.09899700  0.11928000  0.56708367  1
  C  317  1  0.20733100  0.13518300  0.56666900  1
  C  319  1  0.18615500  0.15797100  0.56890000  1
  C  320  1  0.29320300  0.17414600  0.56819000  1
  C  321  1  0.26840600  0.19695900  0.57000700  1
  C  326  1  0.72384100  0.22114500  0.57831433  1
  C  330  1  0.94999900  0.25705300  0.57685467  1
  C  331  1  0.12294600  0.09749800  0.56383700  1
  C  334  1  0.97513900  0.39953100  0.85993967  1
  C  335  1  0.87034200  0.39834800  0.84398733  1
  C  337  1  0.02878100  0.40152700  0.81133100  1
  C  338  1  0.13696900  0.40263800  0.82649767  1
  C  339  1  0.10846400  0.40145300  0.85080033  1
  C  341  1  0.05315000  0.40303100  0.78670533  1
  C  342  1  0.96859800  0.40413500  0.74775567  1
  C  343  1  0.09842700  0.40712400  0.73683733  1
  C  344  1  0.20699000  0.40775900  0.75214900  1
  C  346  1  0.18622000  0.40574700  0.77708700  1
  C  347  1  0.29348200  0.40667700  0.79237500  1
  C  348  1  0.26906600  0.40508700  0.81691833  1
  C  353  1  0.72506200  0.39674400  0.84979867  1
  C  357  1  0.95168100  0.39866800  0.88387000  1
  C  358  1  0.12193000  0.41020700  0.71185733  1
  C  361  1  0.97666000  0.78630500  0.73940167  1
  C  362  1  0.87187800  0.77032700  0.75657267  1
  C  364  1  0.03035200  0.73772200  0.78601200  1
  C  365  1  0.13852000  0.75290867  0.76969167  1
  C  366  1  0.10999000  0.77719800  0.74657700  1
  C  368  1  0.05475000  0.71311300  0.80913733  1
  C  369  1  0.97024500  0.67416600  0.84703467  1
  C  370  1  0.10007800  0.66327900  0.85492767  1
  C  371  1  0.20862200  0.67861400  0.83894067  1
  C  373  1  0.18782200  0.70353100  0.81600433  1
  C  374  1  0.29506300  0.71883900  0.79974167  1
  C  375  1  0.27062200  0.74336500  0.77678267  1
  C  380  1  0.72660700  0.77611400  0.75241933  1
  C  384  1  0.95318200  0.81022900  0.71634533  1
  C  385  1  0.12361900  0.63832800  0.87685133  1
  C  388  1  0.97403800  0.66580000  0.47314767  1
  C  389  1  0.86938000  0.68294800  0.47202400  1
  C  391  1  0.02811100  0.71237400  0.47517767  1
  C  392  1  0.13616300  0.69608500  0.47622333  1
  C  393  1  0.10744300  0.67299100  0.47501833  1
  C  395  1  0.05269800  0.73546600  0.47671767  1
  C  396  1  0.96848300  0.77327900  0.47794667  1
  C  397  1  0.09840100  0.78115700  0.48092267  1
  C  398  1  0.20683500  0.76521300  0.48146933  1
  C  400  1  0.18584500  0.74232400  0.47940767  1
  C  401  1  0.29297300  0.72610000  0.48026367  1
  C  402  1  0.26834500  0.70317900  0.47863267  1
  C  407  1  0.72405600  0.67876900  0.47047500  1
  C  411  1  0.95038100  0.64274800  0.47227567  1
  C  412  1  0.12211000  0.80300100  0.48407467  1
  H  3  1  0.01862900  0.37412400  0.62358000  1
  H  18  1  0.99454800  0.42940000  0.54479900  1
  H  19  1  0.99374300  0.47026200  0.50497167  1
  H  70  1  0.21332500  0.31024800  0.54816233  1
  H  71  1  0.21239600  0.35512800  0.53955167  1
  H  72  1  0.80092300  0.30379433  0.56614300  1
  H  73  1  0.79942100  0.34875000  0.55730633  1
  H  74  1  0.01888400  0.34990700  0.59752167  1
  H  75  1  0.99566800  0.37908800  0.49393067  1
  H  76  1  0.99796600  0.42320000  0.45091567  1
  H  77  1  0.22266800  0.48104400  0.42703267  1
  H  78  1  0.23731800  0.49057700  0.38213300  1
  H  79  1  0.80283800  0.47400300  0.42492900  1
  H  80  1  0.81756000  0.48319400  0.37993700  1
  H  81  1  0.01901500  0.52553400  0.42619533  1
  H  82  1  0.01929900  0.54974400  0.45225567  1
  H  83  1  0.99789400  0.47646000  0.59885633  1
  H  84  1  0.99542900  0.52057000  0.55584267  1
  H  85  1  0.79930100  0.55089400  0.49241233  1
  H  86  1  0.80092800  0.59592900  0.48334433  1
  H  87  1  0.21209500  0.54457700  0.51018333  1
  H  88  1  0.21314500  0.58953600  0.50133900  1
  H  89  1  0.22259100  0.41876500  0.62269800  1
  H  90  1  0.23688600  0.40943800  0.66753767  1
  H  91  1  0.81699800  0.41660200  0.66978033  1
  H  92  1  0.80261300  0.42557200  0.62486467  1
  H  145  1  0.21479000  0.47474200  0.14033800  1
  H  146  1  0.21391500  0.46611400  0.10408200  1
  H  147  1  0.80215800  0.49239800  0.12904300  1
  H  148  1  0.80070000  0.48354400  0.09293600  1
  H  149  1  0.01941300  0.52394300  0.05142733  1
  H  150  1  0.01907500  0.54999400  0.00115333  1
  H  151  1  0.99635900  0.47119000  0.02467700  1
  H  152  1  0.99649800  0.43137800  0.02364567  1
  H  153  1  0.99797900  0.42033500  0.12586100  1
  H  154  1  0.00047100  0.37731800  0.12476900  1
  H  155  1  0.22423300  0.35342767  0.09061900  1
  H  156  1  0.23889500  0.30853000  0.12597000  1
  H  157  1  0.80460500  0.35133900  0.10014267  1
  H  158  1  0.81935400  0.30634600  0.13592567  1
  H  159  1  0.01918900  0.35258000  0.04715300  1
  H  160  1  0.01935300  0.37863000  0.99688333  1
  H  161  1  0.00021500  0.52524600  0.92355067  1
  H  162  1  0.99785600  0.48222900  0.92245867  1
  H  163  1  0.80062100  0.41890600  0.95551967  1
  H  164  1  0.80218800  0.40986100  0.91954167  1
  H  165  1  0.21374900  0.43648100  0.94415467  1
  H  166  1  0.21474100  0.42766100  0.90802267  1
  H  167  1  0.22392300  0.54916100  0.95743433  1
  H  168  1  0.23832300  0.59400667  0.92192400  1
  H  169  1  0.81855400  0.59611100  0.91245567  1
  H  170  1  0.80406300  0.55118400  0.94839933  1
  H  223  1  0.21609200  0.06689500  0.38380433  1
  H  224  1  0.21518600  0.03063300  0.42868833  1
  H  225  1  0.80373500  0.05533500  0.37745500  1
  H  226  1  0.80225800  0.01922000  0.42241300  1
  H  227  1  0.02190100  0.97786600  0.42350233  1
  H  228  1  0.02142700  0.92759100  0.44770700  1
  H  229  1  0.99698600  0.95107800  0.50299833  1
  H  230  1  0.99725500  0.95002700  0.54386533  1
  H  231  1  0.99831400  0.05225600  0.45271500  1
  H  232  1  0.00045500  0.05114500  0.49683400  1
  H  233  1  0.22471300  0.01730000  0.55463600  1
  H  234  1  0.23844800  0.05267400  0.56417900  1
  H  235  1  0.80475900  0.02617800  0.54769200  1
  H  236  1  0.81857500  0.06198400  0.55688200  1
  H  237  1  0.02112700  0.97351700  0.59915633  1
  H  238  1  0.02166700  0.92324700  0.62335833  1
  H  239  1  0.00033600  0.84996233  0.55003633  1
  H  240  1  0.99822400  0.84885100  0.59415733  1
  H  241  1  0.80227800  0.88194000  0.62452933  1
  H  242  1  0.80380900  0.84596100  0.66955400  1
  H  243  1  0.21509000  0.87047633  0.61813400  1
  H  244  1  0.21603300  0.83434800  0.66308533  1
  H  245  1  0.22468800  0.88365000  0.49235900  1
  H  246  1  0.23811400  0.84813700  0.48300567  1
  H  247  1  0.81803500  0.83909100  0.49013533  1
  H  248  1  0.80452300  0.87503500  0.49912567  1
  H  259  1  0.18606500  0.49978000  0.18681200  1
  H  268  1  0.39022300  0.49271800  0.26312700  1
  H  269  1  0.34824300  0.49571100  0.22114100  1
  H  270  1  0.30328100  0.49108000  0.30405300  1
  H  271  1  0.88623400  0.49710600  0.31166900  1
  H  273  1  0.70164500  0.50429800  0.18131900  1
  H  274  1  0.68462200  0.52310400  0.19735500  1
  H  275  1  0.67373800  0.48800300  0.21578800  1
  H  278  1  0.21595100  0.48702700  0.34430400  1
  H  279  1  0.88493300  0.51615800  0.15242800  1
  H  286  1  0.18759600  0.11329400  0.31227700  1
  H  295  1  0.39186000  0.18962300  0.24294400  1
  H  296  1  0.34980900  0.14765400  0.28197800  1
  H  297  1  0.30500700  0.23048400  0.20361867  1
  H  298  1  0.88800500  0.23797000  0.19002067  1
  H  300  1  0.70319100  0.10765600  0.31331500  1
  H  301  1  0.68634300  0.12365900  0.27847600  1
  H  302  1  0.67520000  0.14211500  0.29511900  1
  H  305  1  0.21795800  0.27056300  0.16722133  1
  H  306  1  0.88652400  0.07882000  0.33032500  1
  H  313  1  0.18500500  0.23870700  0.57337967  1
  H  322  1  0.38978800  0.16955700  0.56618100  1
  H  323  1  0.34746800  0.20849500  0.56926333  1
  H  324  1  0.30317000  0.13031600  0.56443700  1
  H  325  1  0.88616300  0.11663900  0.57042600  1
  H  327  1  0.70052900  0.23962800  0.57789333  1
  H  328  1  0.68356100  0.20478400  0.59665433  1
  H  329  1  0.67295000  0.22149800  0.56155000  1
  H  332  1  0.21580700  0.09442500  0.55985300  1
  H  333  1  0.88358200  0.25668000  0.58975367  1
  H  340  1  0.18634600  0.40210200  0.86192100  1
  H  349  1  0.38995800  0.40867300  0.78571267  1
  H  350  1  0.34828400  0.40597300  0.82758867  1
  H  351  1  0.30270000  0.40998500  0.74498100  1
  H  352  1  0.88562800  0.40367000  0.73774233  1
  H  354  1  0.70201900  0.39732900  0.86778867  1
  H  355  1  0.68499700  0.37830900  0.85198167  1
  H  356  1  0.67375500  0.41339900  0.83334733  1
  H  359  1  0.21453700  0.41431200  0.70466800  1
  H  360  1  0.88571300  0.38575467  0.89652467  1
  H  367  1  0.18786200  0.78833700  0.73478067  1
  H  376  1  0.39154400  0.71220300  0.80438133  1
  H  377  1  0.34982500  0.75405100  0.76519733  1
  H  378  1  0.30433600  0.67147000  0.84385467  1
  H  379  1  0.88728900  0.66414100  0.85755200  1
  H  381  1  0.70355200  0.79409500  0.73384767  1
  H  382  1  0.68665000  0.77830100  0.76868067  1
  H  383  1  0.67521200  0.75965000  0.75224633  1
  H  386  1  0.21633700  0.63121200  0.87998367  1
  H  387  1  0.88732400  0.82287700  0.71663367  1
  H  394  1  0.18523000  0.66121300  0.47562367  1
  H  403  1  0.38949900  0.73073300  0.48224433  1
  H  404  1  0.34745700  0.69160700  0.47948533  1
  H  405  1  0.30259900  0.77012000  0.48368467  1
  H  406  1  0.88560400  0.78375800  0.47754867  1
  H  408  1  0.70085900  0.66021100  0.47104300  1
  H  409  1  0.68397200  0.69504300  0.45206767  1
  H  410  1  0.67288800  0.67855100  0.48716167  1
  H  413  1  0.21445500  0.80586200  0.48848333  1
  H  414  1  0.88434100  0.64302467  0.45938200  1
  N  16  1  0.00217800  0.41275300  0.56103167  1
  N  17  1  0.00212100  0.48690000  0.48874767  1
  N  32  1  0.00313300  0.42906900  0.50255533  1
  N  41  1  0.00305600  0.47059000  0.54721667  1
  N  93  1  0.01388500  0.62125500  0.48774767  1
  N  94  1  0.02891200  0.49095000  0.35236467  1
  N  95  1  0.01385500  0.27857100  0.56155233  1
  N  96  1  0.02827100  0.40917200  0.69723700  1
  N  100  1  0.00352200  0.48743200  0.02508633  1
  N  104  1  0.00471300  0.42895600  0.06725333  1
  N  110  1  0.00360800  0.41513900  0.02323233  1
  N  116  1  0.00454400  0.47361000  0.98106467  1
  N  171  1  0.01523600  0.41417000  0.88984833  1
  N  172  1  0.03062300  0.27876500  0.15554633  1
  N  173  1  0.01516000  0.48797600  0.15873633  1
  N  174  1  0.02985600  0.62363300  0.89244933  1
  N  178  1  0.00495400  0.95149800  0.48635167  1
  N  182  1  0.00587900  0.99364400  0.50268233  1
  N  188  1  0.00491000  0.94961000  0.56051267  1
  N  194  1  0.00602400  0.90746300  0.54418533  1
  N  249  1  0.01668100  0.81622500  0.69484233  1
  N  250  1  0.02944200  0.08193500  0.56458600  1
  N  251  1  0.01660300  0.08517200  0.35218000  1
  N  252  1  0.02887700  0.81887600  0.48273867  1
  N  255  1  0.90238000  0.50193400  0.22838400  1
  N  264  1  0.95111600  0.49870400  0.27754733  1
  N  282  1  0.90398600  0.15476900  0.26857167  1
  N  291  1  0.95280700  0.20390800  0.22258700  1
  N  309  1  0.90164400  0.19498400  0.57546333  1
  N  318  1  0.95077500  0.14911200  0.57213200  1
  N  336  1  0.90241000  0.39943000  0.82074700  1
  N  345  1  0.95078000  0.40231600  0.77171867  1
  N  363  1  0.90397500  0.74710500  0.77873133  1
  N  372  1  0.95240200  0.69811100  0.82488333  1
  N  390  1  0.90165400  0.70508400  0.47312167  1
  N  399  1  0.95046100  0.75117000  0.47607833  1
