# generated using pymatgen
data_Zn3H28C30(NO6)2
_symmetry_space_group_name_H-M   'P 1'
_cell_length_a   9.04395000
_cell_length_b   9.13525000
_cell_length_c   19.82054000
_cell_angle_alpha   95.64835000
_cell_angle_beta   97.91584000
_cell_angle_gamma   117.89669000
_symmetry_Int_Tables_number   1
_chemical_formula_structural   Zn3H28C30(NO6)2
_chemical_formula_sum   'Zn3 H28 C30 N2 O12'
_cell_volume   1408.43633607
_cell_formula_units_Z   1
loop_
 _symmetry_equiv_pos_site_id
 _symmetry_equiv_pos_as_xyz
  1  'x, y, z'
loop_
 _atom_site_type_symbol
 _atom_site_label
 _atom_site_symmetry_multiplicity
 _atom_site_fract_x
 _atom_site_fract_y
 _atom_site_fract_z
 _atom_site_occupancy
  Zn  Zn0  1  0.31141000  0.44362000  0.77344000  1
  Zn  Zn1  1  0.44055000  0.61514000  0.93699000  1
  Zn  Zn2  1  0.57025000  0.79184000  0.09906000  1
  H  H3  1  0.37705000  0.98894000  0.84001000  1
  H  H4  1  0.48358000  0.06733000  0.77227000  1
  H  H5  1  0.77787000  0.07428000  0.77242000  1
  H  H6  1  0.85677000  0.99601000  0.83788000  1
  H  H7  1  0.85056000  0.46401000  0.89141000  1
  H  H8  1  0.77506000  0.35578000  0.80407000  1
  H  H9  1  0.03270000  0.76801000  0.98042000  1
  H  H10  1  0.10633000  0.87598000  0.06781000  1
  H  H11  1  0.50284000  0.24639000  0.03233000  1
  H  H12  1  0.39634000  0.16718000  0.09998000  1
  H  H13  1  0.10117000  0.15523000  0.09939000  1
  H  H14  1  0.01988000  0.23225000  0.03427000  1
  H  H15  1  0.00220000  0.16614000  0.68603000  1
  H  H16  1  0.87657000  0.04214000  0.56091000  1
  H  H17  1  0.32199000  0.45511000  0.51513000  1
  H  H18  1  0.42563000  0.56548000  0.64406000  1
  H  H19  1  0.10928000  0.25840000  0.41992000  1
  H  H20  1  0.79309000  0.96427000  0.45214000  1
  H  H21  1  0.58492000  0.76156000  0.35788000  1
  H  H22  1  0.46941000  0.65902000  0.22884000  1
  H  H23  1  0.87813000  0.07147000  0.18535000  1
  H  H24  1  0.01227000  0.19021000  0.31018000  1
  H  H25  1  0.61504000  0.95293000  0.89616000  1
  H  H26  1  0.89310000  0.23158000  0.92767000  1
  H  H27  1  0.60940000  0.23044000  0.92652000  1
  H  H28  1  0.98704000  0.99880000  0.94407000  1
  H  H29  1  0.26286000  0.27914000  0.97582000  1
  H  H30  1  0.27280000  0.00301000  0.94576000  1
  C  C31  1  0.50596000  0.33749000  0.85747000  1
  C  C32  1  0.59987000  0.23857000  0.87128000  1
  C  C33  1  0.50362000  0.05976000  0.82743000  1
  C  C34  1  0.60609000  0.96646000  0.84163000  1
  C  C35  1  0.51021000  0.79089000  0.79805000  1
  C  C36  1  0.78663000  0.06505000  0.82746000  1
  C  C37  1  0.88245000  0.24195000  0.87258000  1
  C  C38  1  0.06419000  0.34631000  0.86240000  1
  C  C39  1  0.78280000  0.33831000  0.85828000  1
  C  C40  1  0.81665000  0.88354000  0.00951000  1
  C  C41  1  0.99787000  0.98832000  0.99913000  1
  C  C42  1  0.09900000  0.89359000  0.01362000  1
  C  C43  1  0.28219000  0.99524000  0.00103000  1
  C  C44  1  0.37636000  0.89659000  0.01506000  1
  C  C45  1  0.37637000  0.17427000  0.04477000  1
  C  C46  1  0.27189000  0.26570000  0.03036000  1
  C  C47  1  0.36500000  0.44092000  0.07447000  1
  C  C48  1  0.09179000  0.16484000  0.04440000  1
  C  C49  1  0.06805000  0.22426000  0.64591000  1
  C  C50  1  0.99954000  0.15708000  0.57598000  1
  C  C51  1  0.08905000  0.23886000  0.52622000  1
  C  C52  1  0.24713000  0.38696000  0.55124000  1
  C  C53  1  0.30743000  0.44825000  0.62210000  1
  C  C54  1  0.02582000  0.18039000  0.45164000  1
  C  C55  1  0.87567000  0.04253000  0.42025000  1
  C  C56  1  0.80926000  0.98545000  0.34580000  1
  C  C57  1  0.65360000  0.83442000  0.32136000  1
  C  C58  1  0.58706000  0.77714000  0.25059000  1
  C  C59  1  0.81788000  0.00868000  0.22580000  1
  C  C60  1  0.89159000  0.07273000  0.29560000  1
  N  N61  1  0.21941000  0.36803000  0.66883000  1
  N  N62  1  0.66778000  0.86326000  0.20343000  1
  O  O63  1  0.45167000  0.33401000  0.79341000  1
  O  O64  1  0.48951000  0.41657000  0.90943000  1
  O  O65  1  0.50553000  0.76320000  0.73482000  1
  O  O66  1  0.42679000  0.66805000  0.83113000  1
  O  O67  1  0.09023000  0.31727000  0.80137000  1
  O  O68  1  0.17407000  0.45508000  0.91348000  1
  O  O69  1  0.70582000  0.77590000  0.95835000  1
  O  O70  1  0.79183000  0.91175000  0.07081000  1
  O  O71  1  0.38772000  0.81248000  0.96333000  1
  O  O72  1  0.43473000  0.90445000  0.07927000  1
  O  O73  1  0.45310000  0.56493000  0.04273000  1
  O  O74  1  0.36307000  0.46677000  0.13706000  1
