# generated using pymatgen
data_ZnHC4O3
_symmetry_space_group_name_H-M   'P 1'
_cell_length_a   14.52828000
_cell_length_b   14.53188000
_cell_length_c   14.53208000
_cell_angle_alpha   107.17819000
_cell_angle_beta   107.14410000
_cell_angle_gamma   107.14481000
_symmetry_Int_Tables_number   1
_chemical_formula_structural   ZnHC4O3
_chemical_formula_sum   'Zn12 H12 C48 O36'
_cell_volume   2544.17874857
_cell_formula_units_Z   12
loop_
 _symmetry_equiv_pos_site_id
 _symmetry_equiv_pos_as_xyz
  1  'x, y, z'
loop_
 _atom_site_type_symbol
 _atom_site_label
 _atom_site_symmetry_multiplicity
 _atom_site_fract_x
 _atom_site_fract_y
 _atom_site_fract_z
 _atom_site_occupancy
  Zn  Zn1  1  0.75000000  0.17623000  0.32377000  1.0
  Zn  Zn2  1  0.75000000  0.30974000  0.19026000  1.0
  Zn  Zn3  1  0.32376000  0.75004000  0.17622000  1.0
  Zn  Zn4  1  0.19022000  0.75001000  0.30975000  1.0
  Zn  Zn5  1  0.17624000  0.32378000  0.74996000  1.0
  Zn  Zn6  1  0.30978000  0.19025000  0.75000000  1.0
  Zn  Zn7  1  0.25000000  0.82377000  0.67623000  1.0
  Zn  Zn8  1  0.25000000  0.69026000  0.80974000  1.0
  Zn  Zn9  1  0.67624000  0.24996000  0.82378000  1.0
  Zn  Zn10  1  0.80978000  0.24999000  0.69025000  1.0
  Zn  Zn11  1  0.82376000  0.67622000  0.25004000  1.0
  Zn  Zn12  1  0.69022000  0.80976000  0.25001000  1.0
  H  H1  1  0.53732000  0.00320000  0.17862000  1.0
  H  H2  1  0.17862000  0.53725000  0.00309000  1.0
  H  H3  1  0.00321000  0.17864000  0.53731000  1.0
  H  H4  1  0.32137000  0.49691000  0.96276000  1.0
  H  H5  1  0.49679000  0.96270000  0.32136000  1.0
  H  H6  1  0.96266000  0.32137000  0.49680000  1.0
  H  H7  1  0.46267000  0.99680000  0.82138000  1.0
  H  H8  1  0.82137000  0.46275000  0.99691000  1.0
  H  H9  1  0.99679000  0.82136000  0.46269000  1.0
  H  H10  1  0.67862000  0.50309000  0.03724000  1.0
  H  H11  1  0.50321000  0.03731000  0.67864000  1.0
  H  H12  1  0.03733000  0.67863000  0.50320000  1.0
  C  C1  1  0.59061000  0.08381000  0.08972000  1.0
  C  C2  1  0.56928000  0.08196000  0.98701000  1.0
  C  C3  1  0.52110000  0.00167000  0.10010000  1.0
  C  C4  1  0.66364000  0.13801000  0.46547000  1.0
  C  C5  1  0.08972000  0.59060000  0.08380000  1.0
  C  C6  1  0.98701000  0.56931000  0.08201000  1.0
  C  C7  1  0.10011000  0.52108000  0.00163000  1.0
  C  C8  1  0.46543000  0.66365000  0.13808000  1.0
  C  C9  1  0.08384000  0.08973000  0.59058000  1.0
  C  C10  1  0.08199000  0.98700000  0.56927000  1.0
  C  C11  1  0.00166000  0.10011000  0.52109000  1.0
  C  C12  1  0.13799000  0.46546000  0.66360000  1.0
  C  C13  1  0.41027000  0.41620000  0.90941000  1.0
  C  C14  1  0.51298000  0.41799000  0.93069000  1.0
  C  C15  1  0.39989000  0.49838000  0.97893000  1.0
  C  C16  1  0.03457000  0.36192000  0.83636000  1.0
  C  C17  1  0.41616000  0.90943000  0.41027000  1.0
  C  C18  1  0.41801000  0.93074000  0.51300000  1.0
  C  C19  1  0.49833000  0.97892000  0.39990000  1.0
  C  C20  1  0.36200000  0.83640000  0.03454000  1.0
  C  C21  1  0.90938000  0.41028000  0.41619000  1.0
  C  C22  1  0.93072000  0.51300000  0.41804000  1.0
  C  C23  1  0.97889000  0.39990000  0.49834000  1.0
  C  C24  1  0.83636000  0.03454000  0.36200000  1.0
  C  C25  1  0.40938000  0.91619000  0.91028000  1.0
  C  C26  1  0.43071000  0.91804000  0.01300000  1.0
  C  C27  1  0.47889000  0.99833000  0.89991000  1.0
  C  C28  1  0.33635000  0.86199000  0.53453000  1.0
  C  C29  1  0.91027000  0.40940000  0.91620000  1.0
  C  C30  1  0.01299000  0.43069000  0.91799000  1.0
  C  C31  1  0.89989000  0.47892000  0.99838000  1.0
  C  C32  1  0.53456000  0.33636000  0.86192000  1.0
  C  C33  1  0.91615000  0.91027000  0.40942000  1.0
  C  C34  1  0.91801000  0.01300000  0.43074000  1.0
  C  C35  1  0.99833000  0.89990000  0.47891000  1.0
  C  C36  1  0.86200000  0.53455000  0.33641000  1.0
  C  C37  1  0.58972000  0.58380000  0.09060000  1.0
  C  C38  1  0.48701000  0.58201000  0.06931000  1.0
  C  C39  1  0.60011000  0.50162000  0.02107000  1.0
  C  C40  1  0.96543000  0.63808000  0.16364000  1.0
  C  C41  1  0.58384000  0.09058000  0.58973000  1.0
  C  C42  1  0.58199000  0.06927000  0.48700000  1.0
  C  C43  1  0.50166000  0.02109000  0.60010000  1.0
  C  C44  1  0.63800000  0.16360000  0.96547000  1.0
  C  C45  1  0.09061000  0.58972000  0.58381000  1.0
  C  C46  1  0.06928000  0.48700000  0.58196000  1.0
  C  C47  1  0.02111000  0.60010000  0.50167000  1.0
  C  C48  1  0.16364000  0.96547000  0.63800000  1.0
  O  O1  1  0.75676000  0.20615000  0.53697000  1.0
  O  O2  1  0.63834000  0.12509000  0.36888000  1.0
  O  O3  1  0.67604000  0.16239000  0.17655000  1.0
  O  O4  1  0.53691000  0.75678000  0.20625000  1.0
  O  O5  1  0.36883000  0.63833000  0.12514000  1.0
  O  O6  1  0.17654000  0.67604000  0.16240000  1.0
  O  O7  1  0.20616000  0.53697000  0.75670000  1.0
  O  O8  1  0.12502000  0.36885000  0.63833000  1.0
  O  O9  1  0.16242000  0.17655000  0.67601000  1.0
  O  O10  1  0.96308000  0.29375000  0.74323000  1.0
  O  O11  1  0.13117000  0.37487000  0.86167000  1.0
  O  O12  1  0.32345000  0.33760000  0.82397000  1.0
  O  O13  1  0.29384000  0.74329000  0.96302000  1.0
  O  O14  1  0.37496000  0.86168000  0.13114000  1.0
  O  O15  1  0.33757000  0.82399000  0.32345000  1.0
  O  O16  1  0.74324000  0.96304000  0.29386000  1.0
  O  O17  1  0.86166000  0.13113000  0.37493000  1.0
  O  O18  1  0.82395000  0.32345000  0.33761000  1.0
  O  O19  1  0.24323000  0.79386000  0.46304000  1.0
  O  O20  1  0.36166000  0.87492000  0.63112000  1.0
  O  O21  1  0.32395000  0.83761000  0.82345000  1.0
  O  O22  1  0.46308000  0.24322000  0.79376000  1.0
  O  O23  1  0.63117000  0.36167000  0.87486000  1.0
  O  O24  1  0.82345000  0.32397000  0.83760000  1.0
  O  O25  1  0.79384000  0.46303000  0.24331000  1.0
  O  O26  1  0.87498000  0.63116000  0.36168000  1.0
  O  O27  1  0.83757000  0.82345000  0.32399000  1.0
  O  O28  1  0.03691000  0.70626000  0.25677000  1.0
  O  O29  1  0.86882000  0.62514000  0.13833000  1.0
  O  O30  1  0.67654000  0.66240000  0.17603000  1.0
  O  O31  1  0.70615000  0.25671000  0.03698000  1.0
  O  O32  1  0.62504000  0.13833000  0.86886000  1.0
  O  O33  1  0.66242000  0.17601000  0.67656000  1.0
  O  O34  1  0.25675000  0.03696000  0.70615000  1.0
  O  O35  1  0.13834000  0.86888000  0.62507000  1.0
  O  O36  1  0.17604000  0.67656000  0.66240000  1.0
