# generated using pymatgen
data_CuH25C22(N2O)4
_symmetry_space_group_name_H-M   'P 1'
_cell_length_a   9.72773000
_cell_length_b   10.99056000
_cell_length_c   15.05103000
_cell_angle_alpha   91.71247000
_cell_angle_beta   90.67296000
_cell_angle_gamma   90.24847000
_symmetry_Int_Tables_number   1
_chemical_formula_structural   CuH25C22(N2O)4
_chemical_formula_sum   'Cu2 H50 C44 N16 O8'
_cell_volume   1608.30647137
_cell_formula_units_Z   2
loop_
 _symmetry_equiv_pos_site_id
 _symmetry_equiv_pos_as_xyz
  1  'x, y, z'
loop_
 _atom_site_type_symbol
 _atom_site_label
 _atom_site_symmetry_multiplicity
 _atom_site_fract_x
 _atom_site_fract_y
 _atom_site_fract_z
 _atom_site_occupancy
  Cu  Cu0  1  0.35934000  0.50000000  0.50000000  1
  Cu  Cu1  1  0.64066000  0.50000000  0.50000000  1
  H  H2  1  0.45650000  0.80634000  0.92382000  1
  H  H3  1  0.57948000  0.20325000  0.07574000  1
  H  H4  1  0.62291000  0.23493000  0.22042000  1
  H  H5  1  0.39289000  0.16866000  0.15958000  1
  H  H6  1  0.32006000  0.26177000  0.24695000  1
  H  H7  1  0.42439000  0.13006000  0.27287000  1
  H  H8  1  0.54793000  0.78962000  0.78903000  1
  H  H9  1  0.28557000  0.77873000  0.81163000  1
  H  H10  1  0.28680000  0.69963000  0.70452000  1
  H  H11  1  0.34942000  0.85383000  0.71568000  1
  H  H12  1  0.49048000  0.90972000  0.06771000  1
  H  H13  1  0.27557000  0.94923000  0.13826000  1
  H  H14  1  0.23518000  0.78914000  0.13049000  1
  H  H15  1  0.24561000  0.87666000  0.03044000  1
  H  H16  1  0.63711000  0.11201000  0.93416000  1
  H  H17  1  0.44634000  0.01478000  0.85936000  1
  H  H18  1  0.35321000  0.15590000  0.86485000  1
  H  H19  1  0.39245000  0.07657000  0.96594000  1
  H  H20  1  0.80828000  0.90255000  0.43743000  1
  H  H21  1  0.90595000  0.92488000  0.58572000  1
  H  H22  1  0.89009000  0.76600000  0.55705000  1
  H  H23  1  0.76354000  0.83796000  0.62791000  1
  H  H24  1  0.16821000  0.09182000  0.54871000  1
  H  H25  1  0.15304000  0.07030000  0.38426000  1
  H  H26  1  0.27586000  0.19246000  0.38127000  1
  H  H27  1  0.11249000  0.22173000  0.42731000  1
  H  H28  1  0.79000000  0.10597000  0.59625000  1
  H  H29  1  0.92791000  0.07736000  0.46922000  1
  H  H30  1  0.89420000  0.23670000  0.47849000  1
  H  H31  1  0.79624000  0.14255000  0.39942000  1
  H  H32  1  0.20143000  0.90419000  0.59517000  1
  H  H33  1  0.07319000  0.90756000  0.46260000  1
  H  H34  1  0.11566000  0.75093000  0.47515000  1
  H  H35  1  0.21442000  0.84222000  0.40075000  1
  H  H36  1  0.86274000  0.43325000  0.69508000  1
  H  H37  1  0.77876000  0.66910000  0.72366000  1
  H  H38  1  0.95637000  0.68604000  0.69073000  1
  H  H39  1  0.91355000  0.59763000  0.78513000  1
  H  H40  1  0.16569000  0.46641000  0.29997000  1
  H  H41  1  0.16344000  0.70375000  0.28278000  1
  H  H42  1  0.00092000  0.69101000  0.33883000  1
  H  H43  1  0.02769000  0.61398000  0.23325000  1
  H  H44  1  0.78275000  0.35488000  0.37264000  1
  H  H45  1  0.86257000  0.28618000  0.24288000  1
  H  H46  1  0.02008000  0.30099000  0.30416000  1
  H  H47  1  0.96259000  0.41846000  0.22866000  1
  H  H48  1  0.11650000  0.51876000  0.71344000  1
  H  H49  1  0.19945000  0.32511000  0.74305000  1
  H  H50  1  0.20973000  0.28908000  0.62668000  1
  H  H51  1  0.04365000  0.29560000  0.67921000  1
  C  C52  1  0.50014000  0.73736000  0.50273000  1
  C  C53  1  0.49953000  0.26262000  0.50202000  1
  C  C54  1  0.47166000  0.72120000  0.95655000  1
  C  C55  1  0.55703000  0.28726000  0.04312000  1
  C  C56  1  0.62482000  0.93758000  0.50444000  1
  C  C57  1  0.37267000  0.06242000  0.50988000  1
  C  C58  1  0.62399000  0.06458000  0.51153000  1
  C  C59  1  0.37462000  0.93578000  0.51779000  1
  C  C60  1  0.49837000  0.12815000  0.50642000  1
  C  C61  1  0.49986000  0.87182000  0.50787000  1
  C  C62  1  0.92869000  0.50876000  0.57794000  1
  C  C63  1  0.07023000  0.50175000  0.42219000  1
  C  C64  1  0.92492000  0.47673000  0.42314000  1
  C  C65  1  0.07426000  0.49292000  0.57756000  1
  C  C66  1  0.50081000  0.50245000  0.67017000  1
  C  C67  1  0.49948000  0.49916000  0.32968000  1
  C  C68  1  0.52246000  0.39328000  0.18500000  1
  C  C69  1  0.48868000  0.61185000  0.81410000  1
  C  C70  1  0.49938000  0.50184000  0.23309000  1
  C  C71  1  0.50320000  0.50159000  0.76653000  1
  C  C72  1  0.48413000  0.61307000  0.19051000  1
  C  C73  1  0.52547000  0.39176000  0.80948000  1
  C  C74  1  0.48482000  0.61539000  0.09618000  1
  C  C75  1  0.52739000  0.39028000  0.90364000  1
  C  C76  1  0.50798000  0.50429000  0.04700000  1
  C  C77  1  0.50870000  0.50225000  0.95266000  1
  C  C78  1  0.53051000  0.39471000  0.09191000  1
  C  C79  1  0.49057000  0.61243000  0.90760000  1
  C  C80  1  0.46503000  0.72407000  0.04878000  1
  C  C81  1  0.54931000  0.28196000  0.95105000  1
  C  C82  1  0.41133000  0.20717000  0.22761000  1
  C  C83  1  0.34334000  0.76530000  0.74893000  1
  C  C84  1  0.47363000  0.72302000  0.24603000  1
  C  C85  1  0.55025000  0.28335000  0.75457000  1
  C  C86  1  0.29024000  0.86419000  0.09786000  1
  C  C87  1  0.43113000  0.10003000  0.89937000  1
  C  C88  1  0.83138000  0.85058000  0.57001000  1
  C  C89  1  0.19352000  0.15233000  0.42042000  1
  C  C90  1  0.84593000  0.14641000  0.46636000  1
  C  C91  1  0.15938000  0.84249000  0.46499000  1
  C  C92  1  0.87913000  0.62248000  0.71742000  1
  C  C93  1  0.07746000  0.64130000  0.29743000  1
  C  C94  1  0.93135000  0.35253000  0.27864000  1
  C  C95  1  0.14790000  0.33691000  0.67764000  1
  N  N96  1  0.14793000  0.50000000  0.50000000  1
  N  N97  1  0.85207000  0.50000000  0.50000000  1
  N  N98  1  0.53360000  0.28266000  0.23178000  1
  N  N99  1  0.48099000  0.72220000  0.76656000  1
  N  N100  1  0.46555000  0.81035000  0.29056000  1
  N  N101  1  0.57008000  0.19705000  0.71078000  1
  N  N102  1  0.43550000  0.83772000  0.09206000  1
  N  N103  1  0.56040000  0.16532000  0.90806000  1
  N  N104  1  0.75191000  0.87634000  0.49114000  1
  N  N105  1  0.24378000  0.12356000  0.50794000  1
  N  N106  1  0.74773000  0.12740000  0.53564000  1
  N  N107  1  0.25078000  0.87339000  0.53867000  1
  N  N108  1  0.86235000  0.51358000  0.66142000  1
  N  N109  1  0.13187000  0.53588000  0.34149000  1
  N  N110  1  0.85710000  0.41278000  0.35028000  1
  N  N111  1  0.14074000  0.46497000  0.65886000  1
  O  O112  1  0.38126000  0.68036000  0.50001000  1
  O  O113  1  0.61874000  0.31964000  0.49999000  1
  O  O114  1  0.38126000  0.31964000  0.49999000  1
  O  O115  1  0.61874000  0.68036000  0.50001000  1
  O  O116  1  0.38120000  0.50003000  0.62974000  1
  O  O117  1  0.61880000  0.49997000  0.37026000  1
  O  O118  1  0.38120000  0.49997000  0.37026000  1
  O  O119  1  0.61880000  0.50003000  0.62974000  1
