# generated using pymatgen
data_ZnH20C30NO4
_symmetry_space_group_name_H-M   'P 1'
_cell_length_a   15.11014452
_cell_length_b   15.75302559
_cell_length_c   15.93747888
_cell_angle_alpha   87.59160029
_cell_angle_beta   84.97330287
_cell_angle_gamma   61.34104248
_symmetry_Int_Tables_number   1
_chemical_formula_structural   ZnH20C30NO4
_chemical_formula_sum   'Zn4 H80 C120 N4 O16'
_cell_volume   3316.04821848
_cell_formula_units_Z   4
loop_
 _symmetry_equiv_pos_site_id
 _symmetry_equiv_pos_as_xyz
  1  'x, y, z'
loop_
 _atom_site_type_symbol
 _atom_site_label
 _atom_site_symmetry_multiplicity
 _atom_site_fract_x
 _atom_site_fract_y
 _atom_site_fract_z
 _atom_site_occupancy
  C  C1  1  0.34609377  0.16412802  0.55466578  1.0
  C  C2  1  0.25842588  0.25913543  0.58193338  1.0
  C  C3  1  0.26461606  0.31023154  0.64924065  1.0
  C  C4  1  0.18301290  0.39784604  0.67507188  1.0
  C  C5  1  0.09208299  0.43797024  0.63440798  1.0
  C  C6  1  0.08678952  0.38576666  0.56704070  1.0
  C  C7  1  0.16871773  0.29802558  0.54088928  1.0
  C  C8  1  0.00391045  0.52861887  0.66063384  1.0
  C  C9  1  0.00133399  0.58893181  0.71997666  1.0
  C  C10  1  0.91328863  0.67427238  0.75495075  1.0
  C  C11  1  0.92202978  0.71129401  0.83096359  1.0
  C  C12  1  0.83818344  0.78500710  0.87389399  1.0
  C  C13  1  0.74322670  0.82504428  0.84116916  1.0
  C  C14  1  0.73450984  0.79299146  0.76282051  1.0
  C  C15  1  0.81840371  0.71857021  0.72038602  1.0
  C  C16  1  0.65209528  0.89718244  0.89241857  1.0
  C  C17  1  0.25036711  0.02809510  0.37840950  1.0
  C  C18  1  0.18071227  0.02850170  0.32739892  1.0
  C  C19  1  0.21365080  0.98436593  0.24792535  1.0
  C  C20  1  0.31795089  0.93931449  0.22466535  1.0
  C  C21  1  0.38314047  0.94153090  0.27939754  1.0
  C  C22  1  0.13891504  0.98990197  0.19320728  1.0
  C  C23  1  0.15208475  0.98223951  0.10873777  1.0
  C  C24  1  0.07353758  0.99235047  0.05485910  1.0
  C  C25  1  0.09574384  0.91575371  0.99916700  1.0
  C  C26  1  0.02216973  0.92308997  0.94313290  1.0
  C  C27  1  0.04891759  0.84308399  0.88870408  1.0
  C  C28  1  0.14232230  0.76209437  0.88806591  1.0
  C  C29  1  0.21390919  0.75447409  0.94399668  1.0
  C  C30  1  0.19032205  0.82873484  0.99872311  1.0
  C  C31  1  0.48977831  0.16412802  0.94533425  1.0
  C  C32  1  0.48243869  0.25913547  0.91806660  1.0
  C  C33  1  0.42515239  0.31023158  0.85075936  1.0
  C  C34  1  0.41914104  0.39784605  0.82492811  1.0
  C  C35  1  0.46994679  0.43797023  0.86559202  1.0
  C  C36  1  0.52744383  0.38576665  0.93295930  1.0
  C  C37  1  0.53325670  0.29802560  0.95911074  1.0
  C  C38  1  0.46747069  0.52861887  0.83936614  1.0
  C  C39  1  0.40973424  0.58893180  0.78002336  1.0
  C  C40  1  0.41243900  0.67427238  0.74504923  1.0
  C  C41  1  0.36667622  0.71129403  0.66903641  1.0
  C  C42  1  0.37680947  0.78500709  0.62610602  1.0
  C  C43  1  0.43172903  0.82504429  0.65883083  1.0
  C  C44  1  0.47249870  0.79299146  0.73717949  1.0
  C  C45  1  0.46302609  0.71857022  0.77961398  1.0
  C  C46  1  0.45072229  0.89718248  0.60758145  1.0
  C  C47  1  0.72153773  0.02809511  0.12159048  1.0
  C  C48  1  0.79078599  0.02850171  0.17260108  1.0
  C  C49  1  0.80198324  0.98436593  0.25207464  1.0
  C  C50  1  0.74273460  0.93931449  0.27533465  1.0
  C  C51  1  0.67532858  0.94153092  0.22060245  1.0
  C  C52  1  0.87118296  0.98990198  0.30679270  1.0
  C  C53  1  0.86567570  0.98223956  0.39126223  1.0
  C  C54  1  0.93411194  0.99235049  0.44514088  1.0
  C  C55  1  0.98850243  0.91575373  0.50083298  1.0
  C  C56  1  0.05474029  0.92308997  0.55686708  1.0
  C  C57  1  0.10799840  0.84308399  0.61129592  1.0
  C  C58  1  0.09558330  0.76209436  0.61193409  1.0
  C  C59  1  0.03161669  0.75447411  0.55600330  1.0
  C  C60  1  0.98094308  0.82873486  0.50127687  1.0
  C  C61  1  0.65390624  0.83587199  0.44533424  1.0
  C  C62  1  0.74157412  0.74086457  0.41806662  1.0
  C  C63  1  0.73538395  0.68976846  0.35075935  1.0
  C  C64  1  0.81698709  0.60215397  0.32492812  1.0
  C  C65  1  0.90791702  0.56202977  0.36559203  1.0
  C  C66  1  0.91321047  0.61423335  0.43295931  1.0
  C  C67  1  0.83128227  0.70197441  0.45911075  1.0
  C  C68  1  0.99608957  0.47138113  0.33936617  1.0
  C  C69  1  0.99866602  0.41106820  0.28002336  1.0
  C  C70  1  0.08671137  0.32572763  0.24504925  1.0
  C  C71  1  0.07797022  0.28870600  0.16903642  1.0
  C  C72  1  0.16181656  0.21499292  0.12610605  1.0
  C  C73  1  0.25677331  0.17495572  0.15883086  1.0
  C  C74  1  0.26549017  0.20700855  0.23717952  1.0
  C  C75  1  0.18159629  0.28142979  0.27961399  1.0
  C  C76  1  0.34790478  0.10281753  0.10758149  1.0
  C  C77  1  0.74963286  0.97190491  0.62159052  1.0
  C  C78  1  0.81928772  0.97149830  0.67260110  1.0
  C  C79  1  0.78634919  0.01563407  0.75207466  1.0
  C  C80  1  0.68204910  0.06068553  0.77533466  1.0
  C  C81  1  0.61685951  0.05846911  0.72060248  1.0
  C  C82  1  0.86108495  0.01009803  0.80679273  1.0
  C  C83  1  0.84791524  0.01776048  0.89126225  1.0
  C  C84  1  0.92646242  0.00764950  0.94514091  1.0
  C  C85  1  0.90425616  0.08424626  0.00083300  1.0
  C  C86  1  0.97783027  0.07691000  0.05686711  1.0
  C  C87  1  0.95108241  0.15691598  0.11129593  1.0
  C  C88  1  0.85767770  0.23790562  0.11193408  1.0
  C  C89  1  0.78609080  0.24552590  0.05600332  1.0
  C  C90  1  0.80967795  0.17126515  0.00127689  1.0
  C  C91  1  0.51022183  0.83587197  0.05466581  1.0
  C  C92  1  0.51756134  0.74086455  0.08193339  1.0
  C  C93  1  0.57484763  0.68976842  0.14924066  1.0
  C  C94  1  0.58085895  0.60215394  0.17507190  1.0
  C  C95  1  0.53005323  0.56202976  0.13440798  1.0
  C  C96  1  0.47255620  0.61423336  0.06704069  1.0
  C  C97  1  0.46674335  0.70197441  0.04088928  1.0
  C  C98  1  0.53252937  0.47138110  0.16063384  1.0
  C  C99  1  0.59026584  0.41106819  0.21997659  1.0
  C  C100  1  0.58756108  0.32572758  0.25495075  1.0
  C  C101  1  0.63332384  0.28870593  0.33096357  1.0
  C  C102  1  0.62319057  0.21499289  0.37389396  1.0
  C  C103  1  0.56827098  0.17495572  0.34116916  1.0
  C  C104  1  0.52750137  0.20700854  0.26282047  1.0
  C  C105  1  0.53697400  0.28142974  0.22038599  1.0
  C  C106  1  0.54927770  0.10281756  0.39241854  1.0
  C  C107  1  0.27846220  0.97190489  0.87840949  1.0
  C  C108  1  0.20921396  0.97149831  0.82739888  1.0
  C  C109  1  0.19801670  0.01563409  0.74792533  1.0
  C  C110  1  0.25726536  0.06068554  0.72466534  1.0
  C  C111  1  0.32467134  0.05846909  0.77939753  1.0
  C  C112  1  0.12881702  0.01009802  0.69320724  1.0
  C  C113  1  0.13432429  0.01776045  0.60873774  1.0
  C  C114  1  0.06588808  0.00764949  0.55485907  1.0
  C  C115  1  0.01149758  0.08424626  0.49916697  1.0
  C  C116  1  0.94525972  0.07691003  0.44313287  1.0
  C  C117  1  0.89200161  0.15691599  0.38870404  1.0
  C  C118  1  0.90441668  0.23790564  0.38806589  1.0
  C  C119  1  0.96838328  0.24552590  0.44399667  1.0
  C  C120  1  0.01905691  0.17126515  0.49872308  1.0
  H  H1  1  0.33476818  0.27925735  0.68068082  1.0
  H  H2  1  0.18907216  0.43482510  0.72881487  1.0
  H  H3  1  0.01668934  0.41537080  0.53550239  1.0
  H  H4  1  0.16495915  0.25799435  0.48837212  1.0
  H  H5  1  0.93472075  0.54574707  0.63082341  1.0
  H  H6  1  0.07089604  0.57008499  0.74994171  1.0
  H  H7  1  0.99534433  0.67849397  0.85777035  1.0
  H  H8  1  0.84395887  0.81154927  0.93411076  1.0
  H  H9  1  0.66122041  0.82655094  0.73601757  1.0
  H  H10  1  0.80975138  0.69364187  0.66034332  1.0
  H  H11  1  0.22721144  0.06459207  0.43917712  1.0
  H  H12  1  0.10069896  0.06513184  0.34823932  1.0
  H  H13  1  0.34847090  0.90283928  0.16430752  1.0
  H  H14  1  0.46412793  0.90859889  0.26241829  1.0
  H  H15  1  0.06557372  0.00485056  0.22440587  1.0
  H  H16  1  0.22499785  0.96892510  0.07719724  1.0
  H  H17  1  0.99370119  0.84657035  0.84738639  1.0
  H  H18  1  0.16129895  0.70247358  0.84514388  1.0
  H  H19  1  0.28705876  0.68908338  0.94354567  1.0
  H  H20  1  0.24409272  0.82146228  0.04347573  1.0
  H  H21  1  0.38597445  0.27925739  0.81931919  1.0
  H  H22  1  0.37610274  0.43482512  0.77118513  1.0
  H  H23  1  0.56793989  0.41537077  0.96449765  1.0
  H  H24  1  0.57704649  0.25799433  0.01162789  1.0
  H  H25  1  0.51953224  0.54574702  0.86917661  1.0
  H  H26  1  0.35901900  0.57008499  0.75005828  1.0
  H  H27  1  0.32616172  0.67849398  0.64222965  1.0
  H  H28  1  0.34449186  0.81154928  0.56588925  1.0
  H  H29  1  0.51222863  0.82655096  0.76398242  1.0
  H  H30  1  0.49660677  0.69364189  0.83965667  1.0
  H  H31  1  0.70819641  0.06459210  0.06082288  1.0
  H  H32  1  0.83416916  0.06513184  0.15176066  1.0
  H  H33  1  0.74868980  0.90283926  0.33569247  1.0
  H  H34  1  0.62727312  0.90859893  0.23758172  1.0
  H  H35  1  0.92957567  0.00485057  0.27559410  1.0
  H  H36  1  0.80607699  0.96892520  0.42280276  1.0
  H  H37  1  0.15972842  0.84657034  0.65261363  1.0
  H  H38  1  0.13622743  0.70247358  0.65485612  1.0
  H  H39  1  0.02385782  0.68908341  0.55645431  1.0
  H  H40  1  0.93444498  0.82146230  0.45652425  1.0
  H  H41  1  0.66523183  0.72074264  0.31931916  1.0
  H  H42  1  0.81092788  0.56517488  0.27118514  1.0
  H  H43  1  0.98331066  0.58462921  0.46449764  1.0
  H  H44  1  0.83504083  0.74200565  0.51162790  1.0
  H  H45  1  0.06527927  0.45425295  0.36917661  1.0
  H  H46  1  0.92910397  0.42991503  0.25005831  1.0
  H  H47  1  0.00465567  0.32150603  0.14222966  1.0
  H  H48  1  0.15604113  0.18845072  0.06588928  1.0
  H  H49  1  0.33877959  0.17344907  0.26398245  1.0
  H  H50  1  0.19024863  0.30635812  0.33965668  1.0
  H  H51  1  0.77278852  0.93540795  0.56082289  1.0
  H  H52  1  0.89930104  0.93486817  0.65176067  1.0
  H  H53  1  0.65152908  0.09716078  0.83569248  1.0
  H  H54  1  0.53587205  0.09140111  0.73758173  1.0
  H  H55  1  0.93442628  0.99514940  0.77559415  1.0
  H  H56  1  0.77500214  0.03107489  0.92280278  1.0
  H  H57  1  0.00629880  0.15342962  0.15261363  1.0
  H  H58  1  0.83870105  0.29752640  0.15485612  1.0
  H  H59  1  0.71294125  0.31091661  0.05645433  1.0
  H  H60  1  0.75590728  0.17853772  0.95652427  1.0
  H  H61  1  0.61402556  0.72074260  0.18068083  1.0
  H  H62  1  0.62389726  0.56517486  0.22881488  1.0
  H  H63  1  0.43206014  0.58462923  0.03550235  1.0
  H  H64  1  0.42295354  0.74200566  0.98837211  1.0
  H  H65  1  0.48046780  0.45425295  0.13082341  1.0
  H  H66  1  0.64098107  0.42991500  0.24994168  1.0
  H  H67  1  0.67383834  0.32150599  0.35777037  1.0
  H  H68  1  0.65550811  0.18845073  0.43411077  1.0
  H  H69  1  0.48777135  0.17344909  0.23601755  1.0
  H  H70  1  0.50339333  0.30635811  0.16034330  1.0
  H  H71  1  0.29180350  0.93540791  0.93917710  1.0
  H  H72  1  0.16583081  0.93486814  0.84823927  1.0
  H  H73  1  0.25131017  0.09716074  0.66430751  1.0
  H  H74  1  0.37272682  0.09140110  0.76241828  1.0
  H  H75  1  0.07042429  0.99514942  0.72440581  1.0
  H  H76  1  0.19392298  0.03107485  0.57719719  1.0
  H  H77  1  0.84027158  0.15342964  0.34738635  1.0
  H  H78  1  0.86377253  0.29752643  0.34514386  1.0
  H  H79  1  0.97614214  0.31091661  0.44354566  1.0
  H  H80  1  0.06555502  0.17853770  0.54347571  1.0
  N  N1  1  0.35013358  0.98505372  0.35526284  1.0
  N  N2  1  0.66481268  0.98505371  0.14473716  1.0
  N  N3  1  0.64986642  0.01494628  0.64473720  1.0
  N  N4  1  0.33518729  0.01494628  0.85526283  1.0
  O  O1  1  0.33427849  0.12182089  0.49368614  1.0
  O  O2  1  0.42520579  0.13274733  0.59501400  1.0
  O  O3  1  0.66724819  0.92277140  0.96237904  1.0
  O  O4  1  0.56628625  0.92591036  0.86356977  1.0
  O  O5  1  0.54390068  0.12182091  0.00631385  1.0
  O  O6  1  0.44204691  0.13274735  0.90498601  1.0
  O  O7  1  0.40998035  0.92277144  0.53762093  1.0
  O  O8  1  0.50780334  0.92591040  0.63643021  1.0
  O  O9  1  0.66572151  0.87817914  0.50631385  1.0
  O  O10  1  0.57479422  0.86725265  0.40498600  1.0
  O  O11  1  0.33275174  0.07722859  0.03762093  1.0
  O  O12  1  0.43371373  0.07408962  0.13643018  1.0
  O  O13  1  0.45609935  0.87817912  0.99368616  1.0
  O  O14  1  0.55795316  0.86725264  0.09501398  1.0
  O  O15  1  0.59001961  0.07722858  0.46237904  1.0
  O  O16  1  0.49219663  0.07408965  0.36356975  1.0
  Zn  Zn1  1  0.44271617  0.99221092  0.43631222  1.0
  Zn  Zn2  1  0.56507294  0.99221093  0.06368770  1.0
  Zn  Zn3  1  0.55728385  0.00778909  0.56368779  1.0
  Zn  Zn4  1  0.43492706  0.00778908  0.93631228  1.0
