# generated using pymatgen
data_GdH12(C4O)6
_symmetry_space_group_name_H-M   'P 1'
_cell_length_a   20.87696000
_cell_length_b   20.87402000
_cell_length_c   23.11303000
_cell_angle_alpha   106.86191000
_cell_angle_beta   106.23359000
_cell_angle_gamma   111.60621000
_symmetry_Int_Tables_number   1
_chemical_formula_structural   GdH12(C4O)6
_chemical_formula_sum   'Gd8 H96 C192 O48'
_cell_volume   8072.98385881
_cell_formula_units_Z   8
loop_
 _symmetry_equiv_pos_site_id
 _symmetry_equiv_pos_as_xyz
  1  'x, y, z'
loop_
 _atom_site_type_symbol
 _atom_site_label
 _atom_site_symmetry_multiplicity
 _atom_site_fract_x
 _atom_site_fract_y
 _atom_site_fract_z
 _atom_site_occupancy
  Gd  Gd1  1  0.78128000  0.37538000  0.61990000  1.0
  Gd  Gd2  1  0.70656000  0.47893000  0.72112000  1.0
  Gd  Gd3  1  0.74460000  0.83926000  0.12038000  1.0
  Gd  Gd4  1  0.74198000  0.01496000  0.22106000  1.0
  Gd  Gd5  1  0.25540000  0.16073000  0.87962000  1.0
  Gd  Gd6  1  0.25802000  0.98503000  0.77894000  1.0
  Gd  Gd7  1  0.21873000  0.62461000  0.38010000  1.0
  Gd  Gd8  1  0.29344000  0.52107000  0.27888000  1.0
  H  H1  1  0.71333000  0.62838000  0.61944000  1.0
  H  H2  1  0.82014000  0.52594000  0.51947000  1.0
  H  H3  1  0.71399000  0.70444000  0.55319000  1.0
  H  H4  1  0.82357000  0.60349000  0.45429000  1.0
  H  H5  1  0.74634000  0.86125000  0.46480000  1.0
  H  H6  1  0.78117000  0.71567000  0.31527000  1.0
  H  H7  1  0.73731000  0.93683000  0.39920000  1.0
  H  H8  1  0.77258000  0.79147000  0.25087000  1.0
  H  H9  1  0.72672000  0.36487000  0.85439000  1.0
  H  H10  1  0.74978000  0.20773000  0.70521000  1.0
  H  H11  1  0.74286000  0.29787000  0.92664000  1.0
  H  H12  1  0.76158000  0.13699000  0.77504000  1.0
  H  H13  1  0.76677000  0.17033000  0.05101000  1.0
  H  H14  1  0.74631000  0.99578000  0.87941000  1.0
  H  H15  1  0.75835000  0.08588000  0.10837000  1.0
  H  H16  1  0.73929000  0.91219000  0.93875000  1.0
  H  H17  1  0.97774000  0.29759000  0.66280000  1.0
  H  H18  1  0.01303000  0.47265000  0.59443000  1.0
  H  H19  1  0.11212000  0.32355000  0.68803000  1.0
  H  H20  1  0.14877000  0.50190000  0.62221000  1.0
  H  H21  1  0.36745000  0.51508000  0.63219000  1.0
  H  H22  1  0.36209000  0.40276000  0.76224000  1.0
  H  H23  1  0.49782000  0.53241000  0.64908000  1.0
  H  H24  1  0.49288000  0.42169000  0.77933000  1.0
  H  H25  1  0.49081000  0.90659000  0.11952000  1.0
  H  H26  1  0.49396000  0.70020000  0.02030000  1.0
  H  H27  1  0.34866000  0.83944000  0.05375000  1.0
  H  H28  1  0.35122000  0.63126000  0.95516000  1.0
  H  H29  1  0.10339000  0.71798000  0.96455000  1.0
  H  H30  1  0.10048000  0.53422000  0.81539000  1.0
  H  H31  1  0.96221000  0.66086000  0.89878000  1.0
  H  H32  1  0.96036000  0.47775000  0.75099000  1.0
  H  H33  1  0.99014000  0.12831000  0.35526000  1.0
  H  H34  1  0.99704000  0.95568000  0.20579000  1.0
  H  H35  1  0.12951000  0.18447000  0.42670000  1.0
  H  H36  1  0.13762000  0.01354000  0.27476000  1.0
  H  H37  1  0.38058000  0.28334000  0.55142000  1.0
  H  H38  1  0.38417000  0.13270000  0.38005000  1.0
  H  H39  1  0.52210000  0.34926000  0.60893000  1.0
  H  H40  1  0.52686000  0.19935000  0.43940000  1.0
  H  H41  1  0.86470000  0.68509000  0.16208000  1.0
  H  H42  1  0.62171000  0.58160000  0.09536000  1.0
  H  H43  1  0.86452000  0.57606000  0.18717000  1.0
  H  H44  1  0.62067000  0.47325000  0.12235000  1.0
  H  H45  1  0.61849000  0.26568000  0.13154000  1.0
  H  H46  1  0.85987000  0.40090000  0.26365000  1.0
  H  H47  1  0.61739000  0.15190000  0.14824000  1.0
  H  H48  1  0.85725000  0.28676000  0.28055000  1.0
  H  H49  1  0.50919000  0.09340000  0.88048000  1.0
  H  H50  1  0.50604000  0.29979000  0.97970000  1.0
  H  H51  1  0.65134000  0.16055000  0.94625000  1.0
  H  H52  1  0.64878000  0.36873000  0.04484000  1.0
  H  H53  1  0.89661000  0.28201000  0.03545000  1.0
  H  H54  1  0.89952000  0.46577000  0.18461000  1.0
  H  H55  1  0.03779000  0.33913000  0.10122000  1.0
  H  H56  1  0.03965000  0.52224000  0.24901000  1.0
  H  H57  1  0.00986000  0.87168000  0.64474000  1.0
  H  H58  1  0.00296000  0.04431000  0.79421000  1.0
  H  H59  1  0.87049000  0.81552000  0.57330000  1.0
  H  H60  1  0.86238000  0.98646000  0.72524000  1.0
  H  H61  1  0.61942000  0.71665000  0.44858000  1.0
  H  H62  1  0.61583000  0.86729000  0.61996000  1.0
  H  H63  1  0.47790000  0.65074000  0.39107000  1.0
  H  H64  1  0.47314000  0.80064000  0.56060000  1.0
  H  H65  1  0.13530000  0.31491000  0.83792000  1.0
  H  H66  1  0.37829000  0.41839000  0.90464000  1.0
  H  H67  1  0.13548000  0.42394000  0.81283000  1.0
  H  H68  1  0.37933000  0.52674000  0.87765000  1.0
  H  H69  1  0.38152000  0.73432000  0.86846000  1.0
  H  H70  1  0.14014000  0.59909000  0.73635000  1.0
  H  H71  1  0.38262000  0.84809000  0.85176000  1.0
  H  H72  1  0.14276000  0.71324000  0.71945000  1.0
  H  H73  1  0.28667000  0.37161000  0.38056000  1.0
  H  H74  1  0.17986000  0.47405000  0.48053000  1.0
  H  H75  1  0.28601000  0.29555000  0.44681000  1.0
  H  H76  1  0.17643000  0.39651000  0.54571000  1.0
  H  H77  1  0.25367000  0.13874000  0.53520000  1.0
  H  H78  1  0.21883000  0.28433000  0.68473000  1.0
  H  H79  1  0.26269000  0.06316000  0.60080000  1.0
  H  H80  1  0.22743000  0.20852000  0.74913000  1.0
  H  H81  1  0.27329000  0.63512000  0.14561000  1.0
  H  H82  1  0.25022000  0.79226000  0.29479000  1.0
  H  H83  1  0.25714000  0.70212000  0.07336000  1.0
  H  H84  1  0.23842000  0.86300000  0.22496000  1.0
  H  H85  1  0.23323000  0.82966000  0.94899000  1.0
  H  H86  1  0.25369000  0.00421000  0.12059000  1.0
  H  H87  1  0.24166000  0.91411000  0.89163000  1.0
  H  H88  1  0.26071000  0.08781000  0.06125000  1.0
  H  H89  1  0.02226000  0.70240000  0.33720000  1.0
  H  H90  1  0.98698000  0.52734000  0.40557000  1.0
  H  H91  1  0.88789000  0.67644000  0.31197000  1.0
  H  H92  1  0.85123000  0.49809000  0.37779000  1.0
  H  H93  1  0.63255000  0.48491000  0.36781000  1.0
  H  H94  1  0.63791000  0.59723000  0.23776000  1.0
  H  H95  1  0.50218000  0.46759000  0.35092000  1.0
  H  H96  1  0.50712000  0.57830000  0.22067000  1.0
  C  C1  1  0.76306000  0.52512000  0.61008000  1.0
  C  C2  1  0.76622000  0.57257000  0.57272000  1.0
  C  C3  1  0.75325000  0.86827000  0.32065000  1.0
  C  C4  1  0.73683000  0.62335000  0.58290000  1.0
  C  C5  1  0.79734000  0.56537000  0.52616000  1.0
  C  C6  1  0.73710000  0.66540000  0.54606000  1.0
  C  C7  1  0.79907000  0.60822000  0.48998000  1.0
  C  C8  1  0.76806000  0.65824000  0.49890000  1.0
  C  C9  1  0.76789000  0.70131000  0.46166000  1.0
  C  C10  1  0.76688000  0.73943000  0.43037000  1.0
  C  C11  1  0.75166000  0.84627000  0.41781000  1.0
  C  C12  1  0.77160000  0.76403000  0.33341000  1.0
  C  C13  1  0.76374000  0.78310000  0.39407000  1.0
  C  C14  1  0.74671000  0.88829000  0.38149000  1.0
  C  C15  1  0.76623000  0.80617000  0.29731000  1.0
  C  C16  1  0.74657000  0.91267000  0.28196000  1.0
  C  C17  1  0.72993000  0.33187000  0.73387000  1.0
  C  C18  1  0.73676000  0.28984000  0.77546000  1.0
  C  C19  1  0.73458000  0.31511000  0.83783000  1.0
  C  C20  1  0.74734000  0.22595000  0.75328000  1.0
  C  C21  1  0.74311000  0.27757000  0.87781000  1.0
  C  C22  1  0.75435000  0.18706000  0.79226000  1.0
  C  C23  1  0.75235000  0.21237000  0.85522000  1.0
  C  C24  1  0.75790000  0.17177000  0.89422000  1.0
  C  C25  1  0.75958000  0.13475000  0.92654000  1.0
  C  C26  1  0.75745000  0.08879000  0.96120000  1.0
  C  C27  1  0.76093000  0.11404000  0.02641000  1.0
  C  C28  1  0.74973000  0.01536000  0.92979000  1.0
  C  C29  1  0.75623000  0.06668000  0.05852000  1.0
  C  C30  1  0.74554000  0.96877000  0.96252000  1.0
  C  C31  1  0.74861000  0.99390000  0.02717000  1.0
  C  C32  1  0.74420000  0.94351000  0.06125000  1.0
  C  C33  1  0.90966000  0.37093000  0.61512000  1.0
  C  C34  1  0.98811000  0.38395000  0.62755000  1.0
  C  C35  1  0.01577000  0.34162000  0.65380000  1.0
  C  C36  1  0.03588000  0.44090000  0.61514000  1.0
  C  C37  1  0.09034000  0.35622000  0.66792000  1.0
  C  C38  1  0.11090000  0.45666000  0.63018000  1.0
  C  C39  1  0.13949000  0.41479000  0.65724000  1.0
  C  C40  1  0.21587000  0.43101000  0.67300000  1.0
  C  C41  1  0.28157000  0.44479000  0.68480000  1.0
  C  C42  1  0.35635000  0.45776000  0.69619000  1.0
  C  C43  1  0.39529000  0.49521000  0.66454000  1.0
  C  C44  1  0.39216000  0.43140000  0.73796000  1.0
  C  C45  1  0.46753000  0.50479000  0.67384000  1.0
  C  C46  1  0.46466000  0.44183000  0.74750000  1.0
  C  C47  1  0.50265000  0.47821000  0.71530000  1.0
  C  C48  1  0.57908000  0.48717000  0.72380000  1.0
  C  C49  1  0.58501000  0.84836000  0.11073000  1.0
  C  C50  1  0.50023000  0.80723000  0.07324000  1.0
  C  C51  1  0.95278000  0.56668000  0.82043000  1.0
  C  C52  1  0.45940000  0.84653000  0.08325000  1.0
  C  C53  1  0.46107000  0.72951000  0.02692000  1.0
  C  C54  1  0.38058000  0.80926000  0.04655000  1.0
  C  C55  1  0.38207000  0.69145000  0.99075000  1.0
  C  C56  1  0.34076000  0.73118000  0.99950000  1.0
  C  C57  1  0.26054000  0.69402000  0.96205000  1.0
  C  C58  1  0.19120000  0.66361000  0.93058000  1.0
  C  C59  1  0.07161000  0.66579000  0.91755000  1.0
  C  C60  1  0.07007000  0.56176000  0.83338000  1.0
  C  C61  1  0.11131000  0.63024000  0.89398000  1.0
  C  C62  1  0.99332000  0.63410000  0.88116000  1.0
  C  C63  1  0.99183000  0.53067000  0.79723000  1.0
  C  C64  1  0.86970000  0.53460000  0.78191000  1.0
  C  C65  1  0.90197000  0.00399000  0.23502000  1.0
  C  C66  1  0.98573000  0.03910000  0.27629000  1.0
  C  C67  1  0.02317000  0.10379000  0.33852000  1.0
  C  C68  1  0.02723000  0.00629000  0.25377000  1.0
  C  C69  1  0.10075000  0.13522000  0.37804000  1.0
  C  C70  1  0.10511000  0.03821000  0.29232000  1.0
  C  C71  1  0.14314000  0.10323000  0.35522000  1.0
  C  C72  1  0.22274000  0.13647000  0.39404000  1.0
  C  C73  1  0.29199000  0.16681000  0.42650000  1.0
  C  C74  1  0.37256000  0.20347000  0.46145000  1.0
  C  C75  1  0.41240000  0.26493000  0.52677000  1.0
  C  C76  1  0.41472000  0.17983000  0.43023000  1.0
  C  C77  1  0.49180000  0.30183000  0.55897000  1.0
  C  C78  1  0.49393000  0.21683000  0.46299000  1.0
  C  C79  1  0.53332000  0.27833000  0.52754000  1.0
  C  C80  1  0.61774000  0.31695000  0.56127000  1.0
  C  C81  1  0.74349000  0.70583000  0.11543000  1.0
  C  C82  1  0.74326000  0.63979000  0.12776000  1.0
  C  C83  1  0.81183000  0.63822000  0.15337000  1.0
  C  C84  1  0.67421000  0.57950000  0.11564000  1.0
  C  C85  1  0.81173000  0.57781000  0.16742000  1.0
  C  C86  1  0.67369000  0.51936000  0.13033000  1.0
  C  C87  1  0.74273000  0.51798000  0.15705000  1.0
  C  C88  1  0.74252000  0.45745000  0.17282000  1.0
  C  C89  1  0.74112000  0.40390000  0.18498000  1.0
  C  C90  1  0.73937000  0.34060000  0.19656000  1.0
  C  C91  1  0.67033000  0.27005000  0.16429000  1.0
  C  C92  1  0.80705000  0.34650000  0.23893000  1.0
  C  C93  1  0.66964000  0.20695000  0.17343000  1.0
  C  C94  1  0.80568000  0.28331000  0.24831000  1.0
  C  C95  1  0.73717000  0.21310000  0.21539000  1.0
  C  C96  1  0.73622000  0.14485000  0.22354000  1.0
  C  C97  1  0.41499000  0.15164000  0.88927000  1.0
  C  C98  1  0.49977000  0.19276000  0.92676000  1.0
  C  C99  1  0.04723000  0.43331000  0.17957000  1.0
  C  C100  1  0.54060000  0.15347000  0.91675000  1.0
  C  C101  1  0.53894000  0.27048000  0.97308000  1.0
  C  C102  1  0.61942000  0.19074000  0.95345000  1.0
  C  C103  1  0.61793000  0.30855000  0.00925000  1.0
  C  C104  1  0.65924000  0.26881000  0.00050000  1.0
  C  C105  1  0.73946000  0.30597000  0.03795000  1.0
  C  C106  1  0.80880000  0.33638000  0.06942000  1.0
  C  C107  1  0.92839000  0.33421000  0.08245000  1.0
  C  C108  1  0.92993000  0.43823000  0.16662000  1.0
  C  C109  1  0.88869000  0.36975000  0.10602000  1.0
  C  C110  1  0.00668000  0.36590000  0.11884000  1.0
  C  C111  1  0.00817000  0.46932000  0.20277000  1.0
  C  C112  1  0.13031000  0.46540000  0.21809000  1.0
  C  C113  1  0.09803000  0.99600000  0.76498000  1.0
  C  C114  1  0.01428000  0.96089000  0.72371000  1.0
  C  C115  1  0.97683000  0.89620000  0.66148000  1.0
  C  C116  1  0.97277000  0.99371000  0.74623000  1.0
  C  C117  1  0.89925000  0.86477000  0.62196000  1.0
  C  C118  1  0.89489000  0.96179000  0.70768000  1.0
  C  C119  1  0.85686000  0.89676000  0.64478000  1.0
  C  C120  1  0.77726000  0.86352000  0.60596000  1.0
  C  C121  1  0.70801000  0.83319000  0.57350000  1.0
  C  C122  1  0.62745000  0.79652000  0.53855000  1.0
  C  C123  1  0.58761000  0.73506000  0.47323000  1.0
  C  C124  1  0.58529000  0.82016000  0.56977000  1.0
  C  C125  1  0.50820000  0.69816000  0.44103000  1.0
  C  C126  1  0.50607000  0.78316000  0.53701000  1.0
  C  C127  1  0.46668000  0.72166000  0.47246000  1.0
  C  C128  1  0.38226000  0.68304000  0.43873000  1.0
  C  C129  1  0.25651000  0.29417000  0.88457000  1.0
  C  C130  1  0.25674000  0.36021000  0.87224000  1.0
  C  C131  1  0.18817000  0.36178000  0.84663000  1.0
  C  C132  1  0.32580000  0.42049000  0.88436000  1.0
  C  C133  1  0.18827000  0.42219000  0.83258000  1.0
  C  C134  1  0.32631000  0.48063000  0.86967000  1.0
  C  C135  1  0.25728000  0.48201000  0.84295000  1.0
  C  C136  1  0.25748000  0.54254000  0.82718000  1.0
  C  C137  1  0.25888000  0.59610000  0.81502000  1.0
  C  C138  1  0.26063000  0.65940000  0.80344000  1.0
  C  C139  1  0.32967000  0.72994000  0.83571000  1.0
  C  C140  1  0.19296000  0.65350000  0.76107000  1.0
  C  C141  1  0.33036000  0.79304000  0.82657000  1.0
  C  C142  1  0.19432000  0.71669000  0.75169000  1.0
  C  C143  1  0.26283000  0.78689000  0.78461000  1.0
  C  C144  1  0.26378000  0.85514000  0.77646000  1.0
  C  C145  1  0.23694000  0.47488000  0.38992000  1.0
  C  C146  1  0.23378000  0.42742000  0.42728000  1.0
  C  C147  1  0.24676000  0.13172000  0.67935000  1.0
  C  C148  1  0.26317000  0.37665000  0.41710000  1.0
  C  C149  1  0.20267000  0.43463000  0.47384000  1.0
  C  C150  1  0.26290000  0.33460000  0.45394000  1.0
  C  C151  1  0.20094000  0.39177000  0.51002000  1.0
  C  C152  1  0.23194000  0.34175000  0.50110000  1.0
  C  C153  1  0.23211000  0.29868000  0.53834000  1.0
  C  C154  1  0.23312000  0.26056000  0.56963000  1.0
  C  C155  1  0.24835000  0.15372000  0.58219000  1.0
  C  C156  1  0.22840000  0.23597000  0.66659000  1.0
  C  C157  1  0.23627000  0.21689000  0.60593000  1.0
  C  C158  1  0.25329000  0.11171000  0.61851000  1.0
  C  C159  1  0.23377000  0.19382000  0.70269000  1.0
  C  C160  1  0.25344000  0.08732000  0.71804000  1.0
  C  C161  1  0.27007000  0.66812000  0.26613000  1.0
  C  C162  1  0.26325000  0.71016000  0.22454000  1.0
  C  C163  1  0.26542000  0.68488000  0.16217000  1.0
  C  C164  1  0.25266000  0.77404000  0.24672000  1.0
  C  C165  1  0.25689000  0.72242000  0.12219000  1.0
  C  C166  1  0.24565000  0.81293000  0.20774000  1.0
  C  C167  1  0.24765000  0.78762000  0.14478000  1.0
  C  C168  1  0.24210000  0.82823000  0.10578000  1.0
  C  C169  1  0.24043000  0.86524000  0.07346000  1.0
  C  C170  1  0.24255000  0.91120000  0.03880000  1.0
  C  C171  1  0.23908000  0.88596000  0.97359000  1.0
  C  C172  1  0.25027000  0.98463000  0.07021000  1.0
  C  C173  1  0.24377000  0.93331000  0.94148000  1.0
  C  C174  1  0.25447000  0.03122000  0.03748000  1.0
  C  C175  1  0.25139000  0.00609000  0.97283000  1.0
  C  C176  1  0.25581000  0.05648000  0.93875000  1.0
  C  C177  1  0.09035000  0.62906000  0.38488000  1.0
  C  C178  1  0.01189000  0.61604000  0.37245000  1.0
  C  C179  1  0.98424000  0.65837000  0.34620000  1.0
  C  C180  1  0.96412000  0.55909000  0.38486000  1.0
  C  C181  1  0.90967000  0.64377000  0.33208000  1.0
  C  C182  1  0.88910000  0.54333000  0.36982000  1.0
  C  C183  1  0.86051000  0.58520000  0.34276000  1.0
  C  C184  1  0.78413000  0.56898000  0.32700000  1.0
  C  C185  1  0.71843000  0.55521000  0.31520000  1.0
  C  C186  1  0.64365000  0.54223000  0.30381000  1.0
  C  C187  1  0.60471000  0.50478000  0.33546000  1.0
  C  C188  1  0.60785000  0.56860000  0.26204000  1.0
  C  C189  1  0.53247000  0.49520000  0.32616000  1.0
  C  C190  1  0.53534000  0.55816000  0.25250000  1.0
  C  C191  1  0.49736000  0.52178000  0.28470000  1.0
  C  C192  1  0.42092000  0.51282000  0.27620000  1.0
  O  O1  1  0.77636000  0.46958000  0.58946000  1.0
  O  O2  1  0.74665000  0.54190000  0.65972000  1.0
  O  O3  1  0.74671000  0.88987000  0.22354000  1.0
  O  O4  1  0.74101000  0.97276000  0.30548000  1.0
  O  O5  1  0.74155000  0.31257000  0.68155000  1.0
  O  O6  1  0.71368000  0.38538000  0.75337000  1.0
  O  O7  1  0.74200000  0.87953000  0.03430000  1.0
  O  O8  1  0.74318000  0.96500000  0.11933000  1.0
  O  O9  1  0.88340000  0.40638000  0.58686000  1.0
  O  O10  1  0.86974000  0.32738000  0.63564000  1.0
  O  O11  1  0.61213000  0.46386000  0.76243000  1.0
  O  O12  1  0.61114000  0.51592000  0.69063000  1.0
  O  O13  1  0.62040000  0.81458000  0.09102000  1.0
  O  O14  1  0.61731000  0.91480000  0.15964000  1.0
  O  O15  1  0.83379000  0.47602000  0.72348000  1.0
  O  O16  1  0.83338000  0.56382000  0.80571000  1.0
  O  O17  1  0.86924000  0.93999000  0.18289000  1.0
  O  O18  1  0.86751000  0.03924000  0.25435000  1.0
  O  O19  1  0.65475000  0.29187000  0.53448000  1.0
  O  O20  1  0.65410000  0.37664000  0.61883000  1.0
  O  O21  1  0.67982000  0.70476000  0.08931000  1.0
  O  O22  1  0.80738000  0.76545000  0.13395000  1.0
  O  O23  1  0.79770000  0.15037000  0.26284000  1.0
  O  O24  1  0.67467000  0.07945000  0.18956000  1.0
  O  O25  1  0.37960000  0.18542000  0.90898000  1.0
  O  O26  1  0.38270000  0.08519000  0.84036000  1.0
  O  O27  1  0.16621000  0.52398000  0.27653000  1.0
  O  O28  1  0.16662000  0.43618000  0.19429000  1.0
  O  O29  1  0.13076000  0.06000000  0.81711000  1.0
  O  O30  1  0.13249000  0.96075000  0.74565000  1.0
  O  O31  1  0.34525000  0.70812000  0.46552000  1.0
  O  O32  1  0.34590000  0.62335000  0.38117000  1.0
  O  O33  1  0.32019000  0.29523000  0.91069000  1.0
  O  O34  1  0.19262000  0.23454000  0.86606000  1.0
  O  O35  1  0.20230000  0.84962000  0.73716000  1.0
  O  O36  1  0.32533000  0.92054000  0.81044000  1.0
  O  O37  1  0.22364000  0.53041000  0.41054000  1.0
  O  O38  1  0.25335000  0.45809000  0.34028000  1.0
  O  O39  1  0.25329000  0.11012000  0.77646000  1.0
  O  O40  1  0.25899000  0.02723000  0.69452000  1.0
  O  O41  1  0.25846000  0.68742000  0.31845000  1.0
  O  O42  1  0.28633000  0.61461000  0.24664000  1.0
  O  O43  1  0.25800000  0.12046000  0.96570000  1.0
  O  O44  1  0.25682000  0.03499000  0.88067000  1.0
  O  O45  1  0.11660000  0.59361000  0.41314000  1.0
  O  O46  1  0.13027000  0.67262000  0.36436000  1.0
  O  O47  1  0.38787000  0.53613000  0.23757000  1.0
  O  O48  1  0.38886000  0.48407000  0.30937000  1.0
