# generated using pymatgen
data_CuH3C4N2O
_symmetry_space_group_name_H-M   'P 1'
_cell_length_a   9.81793000
_cell_length_b   15.82326116
_cell_length_c   15.85185000
_cell_angle_alpha   115.69294184
_cell_angle_beta   101.91950000
_cell_angle_gamma   102.05512974
_symmetry_Int_Tables_number   1
_chemical_formula_structural   CuH3C4N2O
_chemical_formula_sum   'Cu12 H36 C48 N24 O12'
_cell_volume   2043.16030234
_cell_formula_units_Z   12
loop_
 _symmetry_equiv_pos_site_id
 _symmetry_equiv_pos_as_xyz
  1  'x, y, z'
loop_
 _atom_site_type_symbol
 _atom_site_label
 _atom_site_symmetry_multiplicity
 _atom_site_fract_x
 _atom_site_fract_y
 _atom_site_fract_z
 _atom_site_occupancy
  Cu  Cu0  1  0.36750000  0.67450000  0.04189000  1
  Cu  Cu1  1  0.62374000  0.69398000  0.01540000  1
  Cu  Cu2  1  0.32098000  0.95723000  0.63168000  1
  Cu  Cu3  1  0.60546000  0.98523000  0.67765000  1
  Cu  Cu4  1  0.69364000  0.36692000  0.32434000  1
  Cu  Cu5  1  0.93250000  0.32343000  0.30695000  1
  Cu  Cu6  1  0.63251000  0.32551000  0.95812000  1
  Cu  Cu7  1  0.37626000  0.30603000  0.98461000  1
  Cu  Cu8  1  0.67902000  0.04278000  0.36833000  1
  Cu  Cu9  1  0.39454000  0.01477000  0.32235000  1
  Cu  Cu10  1  0.30637000  0.63309000  0.67567000  1
  Cu  Cu11  1  0.06750000  0.67657000  0.69305000  1
  H  H12  1  0.47221000  0.27822000  0.75904000  1
  H  H13  1  0.40651000  0.37821000  0.67850000  1
  H  H14  1  0.47351000  0.56313000  0.79209000  1
  H  H15  1  0.95432000  0.03369000  0.13289000  1
  H  H16  1  0.84396000  0.84568000  0.02820000  1
  H  H17  1  0.87178000  0.11605000  0.28004000  1
  H  H18  1  0.71324000  0.24292000  0.51922000  1
  H  H19  1  0.72454000  0.32231000  0.69864000  1
  H  H20  1  0.67799000  0.20755000  0.76921000  1
  H  H21  1  0.81875000  0.86708000  0.89914000  1
  H  H22  1  0.81414000  0.97242000  0.81628000  1
  H  H23  1  0.58650000  0.72143000  0.83672000  1
  H  H24  1  0.19151000  0.47953000  0.72219000  1
  H  H25  1  0.02844000  0.29813000  0.62043000  1
  H  H26  1  0.91119000  0.22977000  0.43627000  1
  H  H27  1  0.91968000  0.10088000  0.96761000  1
  H  H28  1  0.00109000  0.18509000  0.15543000  1
  H  H29  1  0.75085000  0.16401000  0.88498000  1
  H  H30  1  0.52779000  0.72178000  0.24096000  1
  H  H31  1  0.59348000  0.62179000  0.32150000  1
  H  H32  1  0.52648000  0.43687000  0.20791000  1
  H  H33  1  0.04567000  0.96631000  0.86711000  1
  H  H34  1  0.15603000  0.15432000  0.97180000  1
  H  H35  1  0.12822000  0.88396000  0.71997000  1
  H  H36  1  0.28676000  0.75709000  0.48079000  1
  H  H37  1  0.27546000  0.67770000  0.30137000  1
  H  H38  1  0.32200000  0.79245000  0.23079000  1
  H  H39  1  0.18126000  0.13293000  0.10087000  1
  H  H40  1  0.18586000  0.02759000  0.18373000  1
  H  H41  1  0.41351000  0.27858000  0.16329000  1
  H  H42  1  0.80850000  0.52048000  0.27782000  1
  H  H43  1  0.97156000  0.70187000  0.37957000  1
  H  H44  1  0.08880000  0.77023000  0.56373000  1
  H  H45  1  0.08031000  0.89912000  0.03239000  1
  H  H46  1  0.99890000  0.81491000  0.84457000  1
  H  H47  1  0.24915000  0.83600000  0.11503000  1
  C  C48  1  0.50681000  0.35921000  0.80115000  1
  C  C49  1  0.50753000  0.51596000  0.81961000  1
  C  C50  1  0.46886000  0.41407000  0.75715000  1
  C  C51  1  0.80740000  0.88814000  0.08865000  1
  C  C52  1  0.82396000  0.03605000  0.22819000  1
  C  C53  1  0.87039000  0.99084000  0.14745000  1
  C  C54  1  0.63113000  0.50566000  0.95935000  1
  C  C55  1  0.64623000  0.88219000  0.17990000  1
  C  C56  1  0.70501000  0.20033000  0.55766000  1
  C  C57  1  0.68524000  0.18079000  0.69495000  1
  C  C58  1  0.70906000  0.24371000  0.65585000  1
  C  C59  1  0.71655000  0.91224000  0.79885000  1
  C  C60  1  0.59166000  0.77320000  0.80832000  1
  C  C61  1  0.72007000  0.85314000  0.84255000  1
  C  C62  1  0.67174000  0.04179000  0.54578000  1
  C  C63  1  0.46345000  0.82159000  0.70276000  1
  C  C64  1  0.14687000  0.44137000  0.64132000  1
  C  C65  1  0.99301000  0.30416000  0.48400000  1
  C  C66  1  0.05517000  0.34224000  0.58562000  1
  C  C67  1  0.92038000  0.20231000  0.11294000  1
  C  C68  1  0.78446000  0.19240000  0.96496000  1
  C  C69  1  0.87853000  0.15797000  0.01030000  1
  C  C70  1  0.12782000  0.45528000  0.49598000  1
  C  C71  1  0.76315000  0.29825000  0.11891000  1
  C  C72  1  0.49319000  0.64079000  0.19885000  1
  C  C73  1  0.49247000  0.48404000  0.18039000  1
  C  C74  1  0.53115000  0.58594000  0.24286000  1
  C  C75  1  0.19259000  0.11186000  0.91135000  1
  C  C76  1  0.17603000  0.96395000  0.77181000  1
  C  C77  1  0.12961000  0.00916000  0.85255000  1
  C  C78  1  0.36887000  0.49435000  0.04066000  1
  C  C79  1  0.35377000  0.11782000  0.82011000  1
  C  C80  1  0.29498000  0.79967000  0.44234000  1
  C  C81  1  0.31476000  0.81922000  0.30506000  1
  C  C82  1  0.29094000  0.75629000  0.34415000  1
  C  C83  1  0.28346000  0.08777000  0.20116000  1
  C  C84  1  0.40834000  0.22680000  0.19168000  1
  C  C85  1  0.27994000  0.14687000  0.15746000  1
  C  C86  1  0.32827000  0.95822000  0.45423000  1
  C  C87  1  0.53656000  0.17842000  0.29725000  1
  C  C88  1  0.85312000  0.55863000  0.35868000  1
  C  C89  1  0.00699000  0.69584000  0.51600000  1
  C  C90  1  0.94484000  0.65777000  0.41439000  1
  C  C91  1  0.07963000  0.79770000  0.88707000  1
  C  C92  1  0.21554000  0.80760000  0.03504000  1
  C  C93  1  0.12147000  0.84203000  0.98970000  1
  C  C94  1  0.87218000  0.54473000  0.50403000  1
  C  C95  1  0.23685000  0.70176000  0.88110000  1
  N  N96  1  0.58423000  0.56096000  0.91706000  1
  N  N97  1  0.58572000  0.40195000  0.89819000  1
  N  N98  1  0.69889000  0.83383000  0.10294000  1
  N  N99  1  0.72015000  0.98399000  0.24721000  1
  N  N100  1  0.66547000  0.08337000  0.64264000  1
  N  N101  1  0.68866000  0.10346000  0.50374000  1
  N  N102  1  0.59366000  0.89841000  0.73097000  1
  N  N103  1  0.46860000  0.75486000  0.73820000  1
  N  N104  1  0.02567000  0.35770000  0.43986000  1
  N  N105  1  0.18367000  0.49676000  0.59945000  1
  N  N106  1  0.86630000  0.27061000  0.16718000  1
  N  N107  1  0.73218000  0.26280000  0.01692000  1
  N  N108  1  0.41576000  0.43904000  0.08294000  1
  N  N109  1  0.41428000  0.59805000  0.10181000  1
  N  N110  1  0.30111000  0.16617000  0.89706000  1
  N  N111  1  0.27985000  0.01602000  0.75280000  1
  N  N112  1  0.33453000  0.91664000  0.35737000  1
  N  N113  1  0.31134000  0.89654000  0.49626000  1
  N  N114  1  0.40634000  0.10160000  0.26904000  1
  N  N115  1  0.53141000  0.24515000  0.26181000  1
  N  N116  1  0.97433000  0.64230000  0.56014000  1
  N  N117  1  0.81634000  0.50325000  0.40056000  1
  N  N118  1  0.13370000  0.72939000  0.83282000  1
  N  N119  1  0.26781000  0.73720000  0.98308000  1
  O  O120  1  0.70678000  0.54816000  0.04855000  1
  O  O121  1  0.53641000  0.83639000  0.18964000  1
  O  O122  1  0.65880000  0.95260000  0.49893000  1
  O  O123  1  0.34438000  0.81151000  0.64668000  1
  O  O124  1  0.16299000  0.50315000  0.45462000  1
  O  O125  1  0.69981000  0.35382000  0.16505000  1
  O  O126  1  0.29321000  0.45184000  0.95145000  1
  O  O127  1  0.46360000  0.16362000  0.81037000  1
  O  O128  1  0.34121000  0.04741000  0.50108000  1
  O  O129  1  0.65561000  0.18849000  0.35332000  1
  O  O130  1  0.83700000  0.49685000  0.54538000  1
  O  O131  1  0.30019000  0.64619000  0.83496000  1
