# generated using pymatgen
data_Zn4H24C45N3O16
_symmetry_space_group_name_H-M   'P 1'
_cell_length_a   19.48062000
_cell_length_b   25.65471000
_cell_length_c   28.58320000
_cell_angle_alpha   89.97008000
_cell_angle_beta   84.85710000
_cell_angle_gamma   89.77354000
_symmetry_Int_Tables_number   1
_chemical_formula_structural   Zn4H24C45N3O16
_chemical_formula_sum   'Zn16 H96 C180 N12 O64'
_cell_volume   14227.39648587
_cell_formula_units_Z   4
loop_
 _symmetry_equiv_pos_site_id
 _symmetry_equiv_pos_as_xyz
  1  'x, y, z'
loop_
 _atom_site_type_symbol
 _atom_site_label
 _atom_site_symmetry_multiplicity
 _atom_site_fract_x
 _atom_site_fract_y
 _atom_site_fract_z
 _atom_site_occupancy
  Zn  Zn0  1  0.82471000  0.60820000  0.44108000  1
  Zn  Zn1  1  0.70288000  0.54980000  0.49933000  1
  Zn  Zn2  1  0.82502000  0.59704000  0.55435000  1
  Zn  Zn3  1  0.70998000  0.67045000  0.50801000  1
  Zn  Zn4  1  0.67495000  0.10859000  0.05896000  1
  Zn  Zn5  1  0.79710000  0.04858000  0.00091000  1
  Zn  Zn6  1  0.67480000  0.09724000  0.94571000  1
  Zn  Zn7  1  0.79059000  0.16889000  0.99170000  1
  Zn  Zn8  1  0.17492000  0.39155000  0.55866000  1
  Zn  Zn9  1  0.29726000  0.44971000  0.50134000  1
  Zn  Zn10  1  0.17526000  0.40267000  0.44544000  1
  Zn  Zn11  1  0.29010000  0.32963000  0.49107000  1
  Zn  Zn12  1  0.32493000  0.88961000  0.93952000  1
  Zn  Zn13  1  0.20267000  0.94917000  0.99872000  1
  Zn  Zn14  1  0.32487000  0.89975000  0.05268000  1
  Zn  Zn15  1  0.20931000  0.82895000  0.00820000  1
  H  H16  1  0.03223000  0.65327000  0.42365000  1
  H  H17  1  0.16088000  0.65444000  0.41171000  1
  H  H18  1  0.17158000  0.55519000  0.53196000  1
  H  H19  1  0.04227000  0.55530000  0.54487000  1
  H  H20  1  0.36273000  0.69355000  0.52239000  1
  H  H21  1  0.49088000  0.69297000  0.52510000  1
  H  H22  1  0.49999000  0.53798000  0.46790000  1
  H  H23  1  0.37386000  0.54040000  0.46118000  1
  H  H24  1  0.63581000  0.46589000  0.63551000  1
  H  H25  1  0.63461000  0.42817000  0.71546000  1
  H  H26  1  0.85707000  0.41272000  0.69748000  1
  H  H27  1  0.85917000  0.44589000  0.61624000  1
  H  H28  1  0.81104000  0.34029000  0.81664000  1
  H  H29  1  0.82353000  0.26819000  0.87472000  1
  H  H30  1  0.61976000  0.21480000  0.85348000  1
  H  H31  1  0.60340000  0.29181000  0.80139000  1
  H  H32  1  0.71413000  0.41627000  0.42376000  1
  H  H33  1  0.71140000  0.34294000  0.36633000  1
  H  H34  1  0.80976000  0.43957000  0.25772000  1
  H  H35  1  0.81447000  0.51315000  0.31538000  1
  H  H36  1  0.67888000  0.27448000  0.23533000  1
  H  H37  1  0.66037000  0.21474000  0.16893000  1
  H  H38  1  0.81619000  0.29462000  0.08023000  1
  H  H39  1  0.83520000  0.35582000  0.14650000  1
  H  H40  1  0.46725000  0.14846000  0.07741000  1
  H  H41  1  0.33872000  0.14839000  0.08973000  1
  H  H42  1  0.32994000  0.05445000  0.96588000  1
  H  H43  1  0.45913000  0.05565000  0.95313000  1
  H  H44  1  0.13772000  0.18939000  0.97769000  1
  H  H45  1  0.00942000  0.19053000  0.97584000  1
  H  H46  1  0.99877000  0.03675000  0.03551000  1
  H  H47  1  0.12497000  0.03750000  0.04146000  1
  H  H48  1  0.86396000  0.96721000  0.86349000  1
  H  H49  1  0.86484000  0.93040000  0.78308000  1
  H  H50  1  0.64293000  0.91322000  0.80214000  1
  H  H51  1  0.64108000  0.94622000  0.88345000  1
  H  H52  1  0.69050000  0.84156000  0.68277000  1
  H  H53  1  0.67781000  0.76984000  0.62450000  1
  H  H54  1  0.87948000  0.71253000  0.64779000  1
  H  H55  1  0.89637000  0.78912000  0.70010000  1
  H  H56  1  0.78148000  0.91661000  0.07517000  1
  H  H57  1  0.78662000  0.84304000  0.13229000  1
  H  H58  1  0.68930000  0.93912000  0.24212000  1
  H  H59  1  0.68259000  0.01300000  0.18479000  1
  H  H60  1  0.81972000  0.77175000  0.26301000  1
  H  H61  1  0.83770000  0.71210000  0.32993000  1
  H  H62  1  0.68398000  0.79476000  0.41866000  1
  H  H63  1  0.66527000  0.85601000  0.35205000  1
  H  H64  1  0.96852000  0.34815000  0.57543000  1
  H  H65  1  0.83996000  0.34715000  0.58836000  1
  H  H66  1  0.82746000  0.44465000  0.46713000  1
  H  H67  1  0.95672000  0.44450000  0.45335000  1
  H  H68  1  0.63757000  0.30746000  0.47744000  1
  H  H69  1  0.50940000  0.30763000  0.47500000  1
  H  H70  1  0.49954000  0.46188000  0.53381000  1
  H  H71  1  0.62575000  0.45985000  0.54008000  1
  H  H72  1  0.36429000  0.53348000  0.36517000  1
  H  H73  1  0.36511000  0.56993000  0.28477000  1
  H  H74  1  0.14266000  0.58688000  0.30355000  1
  H  H75  1  0.14122000  0.55434000  0.38489000  1
  H  H76  1  0.18882000  0.65555000  0.18148000  1
  H  H77  1  0.17589000  0.72823000  0.12409000  1
  H  H78  1  0.37816000  0.78338000  0.14709000  1
  H  H79  1  0.39523000  0.70599000  0.19846000  1
  H  H80  1  0.28252000  0.58356000  0.57549000  1
  H  H81  1  0.28670000  0.65684000  0.63294000  1
  H  H82  1  0.18946000  0.56027000  0.74205000  1
  H  H83  1  0.18326000  0.48680000  0.68437000  1
  H  H84  1  0.32060000  0.72401000  0.76416000  1
  H  H85  1  0.33874000  0.78384000  0.83068000  1
  H  H86  1  0.18555000  0.70186000  0.92000000  1
  H  H87  1  0.16686000  0.64067000  0.85350000  1
  H  H88  1  0.53360000  0.84488000  0.92184000  1
  H  H89  1  0.66222000  0.84555000  0.90965000  1
  H  H90  1  0.67002000  0.94385000  0.03082000  1
  H  H91  1  0.54080000  0.94178000  0.04392000  1
  H  H92  1  0.86246000  0.80623000  0.02100000  1
  H  H93  1  0.99052000  0.80612000  0.02430000  1
  H  H94  1  0.99984000  0.96139000  0.96765000  1
  H  H95  1  0.87392000  0.95938000  0.95990000  1
  H  H96  1  0.13737000  0.02707000  0.13686000  1
  H  H97  1  0.13578000  0.06647000  0.21615000  1
  H  H98  1  0.35681000  0.08689000  0.19594000  1
  H  H99  1  0.35911000  0.05042000  0.11572000  1
  H  H100  1  0.30984000  0.15773000  0.31558000  1
  H  H101  1  0.32443000  0.22964000  0.37323000  1
  H  H102  1  0.12291000  0.28824000  0.35113000  1
  H  H103  1  0.10422000  0.21167000  0.29927000  1
  H  H104  1  0.21673000  0.08400000  0.92442000  1
  H  H105  1  0.21187000  0.15702000  0.86672000  1
  H  H106  1  0.31035000  0.06016000  0.75790000  1
  H  H107  1  0.31727000  0.98699000  0.81587000  1
  H  H108  1  0.17854000  0.22673000  0.73523000  1
  H  H109  1  0.16141000  0.28652000  0.66855000  1
  H  H110  1  0.31587000  0.20386000  0.58018000  1
  H  H111  1  0.33362000  0.14266000  0.64687000  1
  C  C112  1  0.95271000  0.60198000  0.48991000  1
  C  C113  1  0.02967000  0.60357000  0.48449000  1
  C  C114  1  0.06310000  0.63193000  0.44714000  1
  C  C115  1  0.13469000  0.63236000  0.44044000  1
  C  C116  1  0.17377000  0.60371000  0.47061000  1
  C  C117  1  0.14048000  0.57656000  0.50868000  1
  C  C118  1  0.06869000  0.57663000  0.51573000  1
  C  C119  1  0.24992000  0.60351000  0.46189000  1
  C  C120  1  0.35984000  0.61719000  0.49120000  1
  C  C121  1  0.39349000  0.66017000  0.50961000  1
  C  C122  1  0.46468000  0.65971000  0.51136000  1
  C  C123  1  0.50367000  0.61551000  0.49664000  1
  C  C124  1  0.46995000  0.57230000  0.47908000  1
  C  C125  1  0.39935000  0.57339000  0.47562000  1
  C  C126  1  0.57917000  0.61336000  0.49987000  1
  C  C127  1  0.75205000  0.50091000  0.58474000  1
  C  C128  1  0.74551000  0.44992000  0.61440000  1
  C  C129  1  0.68268000  0.45145000  0.64918000  1
  C  C130  1  0.68193000  0.43042000  0.69241000  1
  C  C131  1  0.74544000  0.41104000  0.71041000  1
  C  C132  1  0.80966000  0.42135000  0.68151000  1
  C  C133  1  0.81067000  0.43861000  0.63693000  1
  C  C134  1  0.69291000  0.36876000  0.77864000  1
  C  C135  1  0.70609000  0.32084000  0.80634000  1
  C  C136  1  0.76921000  0.31317000  0.82564000  1
  C  C137  1  0.77633000  0.27279000  0.85749000  1
  C  C138  1  0.72208000  0.23753000  0.86778000  1
  C  C139  1  0.66066000  0.24307000  0.84592000  1
  C  C140  1  0.65197000  0.28541000  0.81656000  1
  C  C141  1  0.72845000  0.19582000  0.90356000  1
  C  C142  1  0.76774000  0.51127000  0.40852000  1
  C  C143  1  0.76454000  0.46917000  0.37296000  1
  C  C144  1  0.73448000  0.42134000  0.38740000  1
  C  C145  1  0.73280000  0.38062000  0.35561000  1
  C  C146  1  0.76004000  0.38703000  0.30880000  1
  C  C147  1  0.78867000  0.43520000  0.29403000  1
  C  C148  1  0.79145000  0.47599000  0.32608000  1
  C  C149  1  0.75903000  0.34067000  0.27723000  1
  C  C150  1  0.76064000  0.31849000  0.19616000  1
  C  C151  1  0.70852000  0.27872000  0.20159000  1
  C  C152  1  0.69838000  0.24569000  0.16482000  1
  C  C153  1  0.73838000  0.25042000  0.12125000  1
  C  C154  1  0.78694000  0.29109000  0.11429000  1
  C  C155  1  0.79748000  0.32466000  0.15062000  1
  C  C156  1  0.73163000  0.21090000  0.08366000  1
  C  C157  1  0.54739000  0.10038000  0.00970000  1
  C  C158  1  0.47054000  0.10114000  0.01518000  1
  C  C159  1  0.43669000  0.12787000  0.05341000  1
  C  C160  1  0.36518000  0.12758000  0.06026000  1
  C  C161  1  0.32653000  0.09994000  0.02932000  1
  C  C162  1  0.36033000  0.07474000  0.99014000  1
  C  C163  1  0.43209000  0.07542000  0.98303000  1
  C  C164  1  0.25038000  0.09953000  0.03832000  1
  C  C165  1  0.13998000  0.11345000  0.00976000  1
  C  C166  1  0.10658000  0.15668000  0.99119000  1
  C  C167  1  0.03533000  0.15712000  0.98985000  1
  C  C168  1  0.99593000  0.11358000  0.00523000  1
  C  C169  1  0.02924000  0.07041000  0.02358000  1
  C  C170  1  0.09995000  0.07062000  0.02661000  1
  C  C171  1  0.92071000  0.11189000  0.00100000  1
  C  C172  1  0.74798000  0.00092000  0.91511000  1
  C  C173  1  0.75470000  0.95031000  0.88494000  1
  C  C174  1  0.81723000  0.95259000  0.84996000  1
  C  C175  1  0.81791000  0.93203000  0.80659000  1
  C  C176  1  0.75475000  0.91189000  0.78897000  1
  C  C177  1  0.69039000  0.92211000  0.81788000  1
  C  C178  1  0.68948000  0.93932000  0.86246000  1
  C  C179  1  0.80848000  0.86750000  0.72215000  1
  C  C180  1  0.79476000  0.82014000  0.69409000  1
  C  C181  1  0.73194000  0.81377000  0.67419000  1
  C  C182  1  0.72453000  0.77353000  0.64234000  1
  C  C183  1  0.77798000  0.73718000  0.63263000  1
  C  C184  1  0.83907000  0.74151000  0.65500000  1
  C  C185  1  0.84812000  0.78366000  0.68439000  1
  C  C186  1  0.77140000  0.69571000  0.59675000  1
  C  C187  1  0.72784000  0.01155000  0.09166000  1
  C  C188  1  0.73169000  0.96913000  0.12673000  1
  C  C189  1  0.76185000  0.92140000  0.11170000  1
  C  C190  1  0.76476000  0.88060000  0.14327000  1
  C  C191  1  0.73840000  0.88681000  0.19029000  1
  C  C192  1  0.70949000  0.93487000  0.20560000  1
  C  C193  1  0.70566000  0.97581000  0.17381000  1
  C  C194  1  0.74062000  0.84015000  0.22136000  1
  C  C195  1  0.73914000  0.81739000  0.30244000  1
  C  C196  1  0.79061000  0.77680000  0.29691000  1
  C  C197  1  0.80037000  0.74379000  0.33382000  1
  C  C198  1  0.76081000  0.74953000  0.37749000  1
  C  C199  1  0.71290000  0.79084000  0.38450000  1
  C  C200  1  0.70261000  0.82434000  0.34803000  1
  C  C201  1  0.76770000  0.71055000  0.41543000  1
  C  C202  1  0.04720000  0.39829000  0.50856000  1
  C  C203  1  0.97021000  0.39715000  0.51425000  1
  C  C204  1  0.93724000  0.36928000  0.55208000  1
  C  C205  1  0.86573000  0.36899000  0.55932000  1
  C  C206  1  0.82623000  0.39725000  0.52916000  1
  C  C207  1  0.85900000  0.42382000  0.49052000  1
  C  C208  1  0.93076000  0.42367000  0.48297000  1
  C  C209  1  0.75017000  0.39721000  0.53828000  1
  C  C210  1  0.64014000  0.38342000  0.50928000  1
  C  C211  1  0.60657000  0.34055000  0.49063000  1
  C  C212  1  0.53533000  0.34084000  0.48903000  1
  C  C213  1  0.49618000  0.38481000  0.50428000  1
  C  C214  1  0.52982000  0.42782000  0.52223000  1
  C  C215  1  0.60045000  0.42689000  0.52546000  1
  C  C216  1  0.42071000  0.38719000  0.50115000  1
  C  C217  1  0.24741000  0.49916000  0.41615000  1
  C  C218  1  0.25469000  0.54994000  0.38633000  1
  C  C219  1  0.31737000  0.54781000  0.35145000  1
  C  C220  1  0.31789000  0.56822000  0.30798000  1
  C  C221  1  0.25429000  0.58740000  0.28990000  1
  C  C222  1  0.19023000  0.57795000  0.31922000  1
  C  C223  1  0.18953000  0.56121000  0.36389000  1
  C  C224  1  0.30649000  0.62843000  0.22092000  1
  C  C225  1  0.29324000  0.67599000  0.19273000  1
  C  C226  1  0.23032000  0.68311000  0.17305000  1
  C  C227  1  0.22289000  0.72377000  0.14154000  1
  C  C228  1  0.27638000  0.75979000  0.13182000  1
  C  C229  1  0.33767000  0.75463000  0.15395000  1
  C  C230  1  0.34678000  0.71203000  0.18300000  1
  C  C231  1  0.26899000  0.80171000  0.09633000  1
  C  C232  1  0.22910000  0.48872000  0.59121000  1
  C  C233  1  0.23265000  0.53081000  0.62664000  1
  C  C234  1  0.26272000  0.57855000  0.61197000  1
  C  C235  1  0.26511000  0.61923000  0.64371000  1
  C  C236  1  0.23850000  0.61272000  0.69063000  1
  C  C237  1  0.20981000  0.56463000  0.70560000  1
  C  C238  1  0.20631000  0.52392000  0.67360000  1
  C  C239  1  0.24029000  0.65876000  0.72242000  1
  C  C240  1  0.23975000  0.67944000  0.80364000  1
  C  C241  1  0.29139000  0.71953000  0.79807000  1
  C  C242  1  0.30125000  0.75255000  0.83489000  1
  C  C243  1  0.26170000  0.74735000  0.87862000  1
  C  C244  1  0.21425000  0.70594000  0.88579000  1
  C  C245  1  0.20392000  0.67234000  0.84942000  1
  C  C246  1  0.26807000  0.78715000  0.91607000  1
  C  C247  1  0.45278000  0.89454000  0.98892000  1
  C  C248  1  0.52972000  0.89390000  0.98322000  1
  C  C249  1  0.56382000  0.86646000  0.94543000  1
  C  C250  1  0.63539000  0.86710000  0.93856000  1
  C  C251  1  0.67369000  0.89590000  0.96893000  1
  C  C252  1  0.63969000  0.92229000  0.00731000  1
  C  C253  1  0.56794000  0.92114000  0.01455000  1
  C  C254  1  0.74989000  0.89653000  0.96026000  1
  C  C255  1  0.85976000  0.88273000  0.99000000  1
  C  C256  1  0.89329000  0.83950000  0.00848000  1
  C  C257  1  0.96440000  0.83960000  0.01057000  1
  C  C258  1  0.00334000  0.88373000  0.99617000  1
  C  C259  1  0.96977000  0.92716000  0.97853000  1
  C  C260  1  0.89929000  0.92635000  0.97463000  1
  C  C261  1  0.07872000  0.88543000  0.99962000  1
  C  C262  1  0.25188000  0.99626000  0.08395000  1
  C  C263  1  0.24551000  0.04673000  0.11411000  1
  C  C264  1  0.18341000  0.04405000  0.14940000  1
  C  C265  1  0.18240000  0.06589000  0.19231000  1
  C  C266  1  0.24512000  0.08802000  0.20902000  1
  C  C267  1  0.30952000  0.07721000  0.18036000  1
  C  C268  1  0.31068000  0.05819000  0.13637000  1
  C  C269  1  0.19178000  0.13293000  0.27579000  1
  C  C270  1  0.20572000  0.17991000  0.30454000  1
  C  C271  1  0.26879000  0.18588000  0.32426000  1
  C  C272  1  0.27715000  0.22615000  0.35597000  1
  C  C273  1  0.22422000  0.26291000  0.36605000  1
  C  C274  1  0.16282000  0.25885000  0.34397000  1
  C  C275  1  0.15282000  0.21672000  0.31467000  1
  C  C276  1  0.23141000  0.30424000  0.40212000  1
  C  C277  1  0.27072000  0.98852000  0.90856000  1
  C  C278  1  0.26708000  0.03103000  0.87339000  1
  C  C279  1  0.23655000  0.07882000  0.88794000  1
  C  C280  1  0.23378000  0.11938000  0.85602000  1
  C  C281  1  0.26038000  0.11281000  0.80906000  1
  C  C282  1  0.28973000  0.06471000  0.79429000  1
  C  C283  1  0.29366000  0.02413000  0.82644000  1
  C  C284  1  0.25835000  0.15898000  0.77733000  1
  C  C285  1  0.25946000  0.18112000  0.69620000  1
  C  C286  1  0.20812000  0.22177000  0.70151000  1
  C  C287  1  0.19871000  0.25484000  0.66457000  1
  C  C288  1  0.23846000  0.24934000  0.62093000  1
  C  C289  1  0.28639000  0.20795000  0.61414000  1
  C  C290  1  0.29630000  0.17436000  0.65069000  1
  C  C291  1  0.23155000  0.28892000  0.58336000  1
  N  N292  1  0.28758000  0.61791000  0.49405000  1
  N  N293  1  0.77843000  0.35061000  0.23011000  1
  N  N294  1  0.75100000  0.38479000  0.74933000  1
  N  N295  1  0.21228000  0.11331000  0.00613000  1
  N  N296  1  0.72152000  0.84974000  0.26854000  1
  N  N297  1  0.74979000  0.88478000  0.75047000  1
  N  N298  1  0.71239000  0.38298000  0.50615000  1
  N  N299  1  0.22133000  0.64798000  0.76948000  1
  N  N300  1  0.24851000  0.61284000  0.25055000  1
  N  N301  1  0.78752000  0.88230000  0.99255000  1
  N  N302  1  0.27676000  0.14866000  0.73016000  1
  N  N303  1  0.25027000  0.11649000  0.24673000  1
  O  O304  1  0.76789000  0.60709000  0.50171000  1
  O  O305  1  0.92275000  0.61177000  0.45280000  1
  O  O306  1  0.27777000  0.59387000  0.41658000  1
  O  O307  1  0.61049000  0.65551000  0.50912000  1
  O  O308  1  0.60780000  0.56837000  0.49298000  1
  O  O309  1  0.80534000  0.52865000  0.58794000  1
  O  O310  1  0.70236000  0.51044000  0.56008000  1
  O  O311  1  0.63663000  0.39122000  0.78443000  1
  O  O312  1  0.77419000  0.20302000  0.93232000  1
  O  O313  1  0.80258000  0.55232000  0.39734000  1
  O  O314  1  0.73593000  0.50234000  0.44895000  1
  O  O315  1  0.74681000  0.29652000  0.29389000  1
  O  O316  1  0.77128000  0.21626000  0.04582000  1
  O  O317  1  0.68779000  0.17454000  0.09280000  1
  O  O318  1  0.92346000  0.59091000  0.53049000  1
  O  O319  1  0.68738000  0.15690000  0.90285000  1
  O  O320  1  0.73194000  0.10667000  0.99838000  1
  O  O321  1  0.57717000  0.11173000  0.04645000  1
  O  O322  1  0.22251000  0.09092000  0.08382000  1
  O  O323  1  0.89024000  0.15350000  0.98891000  1
  O  O324  1  0.89136000  0.06757000  0.00951000  1
  O  O325  1  0.69461000  0.02882000  0.91206000  1
  O  O326  1  0.79769000  0.01016000  0.93982000  1
  O  O327  1  0.86582000  0.88816000  0.71769000  1
  O  O328  1  0.72569000  0.70324000  0.56798000  1
  O  O329  1  0.69448000  0.05319000  0.10400000  1
  O  O330  1  0.75742000  0.00249000  0.05055000  1
  O  O331  1  0.75326000  0.79627000  0.20410000  1
  O  O332  1  0.73172000  0.71850000  0.45451000  1
  O  O333  1  0.80834000  0.67215000  0.40524000  1
  O  O334  1  0.57679000  0.08860000  0.96929000  1
  O  O335  1  0.81252000  0.65657000  0.59729000  1
  O  O336  1  0.23196000  0.39272000  0.49817000  1
  O  O337  1  0.07716000  0.38832000  0.54566000  1
  O  O338  1  0.72250000  0.40623000  0.58372000  1
  O  O339  1  0.38924000  0.34564000  0.49073000  1
  O  O340  1  0.39204000  0.43203000  0.50923000  1
  O  O341  1  0.19463000  0.47121000  0.41200000  1
  O  O342  1  0.29590000  0.48992000  0.44182000  1
  O  O343  1  0.36287000  0.60605000  0.21544000  1
  O  O344  1  0.22298000  0.79433000  0.06775000  1
  O  O345  1  0.19413000  0.44774000  0.60247000  1
  O  O346  1  0.26081000  0.49749000  0.55077000  1
  O  O347  1  0.25307000  0.70300000  0.70614000  1
  O  O348  1  0.23127000  0.78069000  0.95495000  1
  O  O349  1  0.30900000  0.82505000  0.90531000  1
  O  O350  1  0.07635000  0.40899000  0.46780000  1
  O  O351  1  0.30933000  0.84104000  0.09698000  1
  O  O352  1  0.26768000  0.89097000  0.99994000  1
  O  O353  1  0.42297000  0.88570000  0.95163000  1
  O  O354  1  0.77781000  0.90607000  0.91490000  1
  O  O355  1  0.10973000  0.84318000  0.00923000  1
  O  O356  1  0.10775000  0.93006000  0.99260000  1
  O  O357  1  0.30573000  0.96860000  0.08587000  1
  O  O358  1  0.20143000  0.98692000  0.06003000  1
  O  O359  1  0.13498000  0.11164000  0.28022000  1
  O  O360  1  0.27772000  0.29671000  0.43046000  1
  O  O361  1  0.30553000  0.94743000  0.89650000  1
  O  O362  1  0.23926000  0.99708000  0.94923000  1
  O  O363  1  0.24662000  0.20330000  0.79391000  1
  O  O364  1  0.26707000  0.28134000  0.54403000  1
  O  O365  1  0.19139000  0.32747000  0.59438000  1
  O  O366  1  0.42354000  0.90393000  0.02997000  1
  O  O367  1  0.19015000  0.34332000  0.40229000  1
