# generated using pymatgen
data_ZnH15C21N2O5
_symmetry_space_group_name_H-M   'P 1'
_cell_length_a   8.05764978
_cell_length_b   14.06627437
_cell_length_c   23.81997361
_cell_angle_alpha   99.37035989
_cell_angle_beta   89.99999305
_cell_angle_gamma   106.64358758
_symmetry_Int_Tables_number   1
_chemical_formula_structural   ZnH15C21N2O5
_chemical_formula_sum   'Zn4 H60 C84 N8 O20'
_cell_volume   2549.05236075
_cell_formula_units_Z   4
loop_
 _symmetry_equiv_pos_site_id
 _symmetry_equiv_pos_as_xyz
  1  'x, y, z'
loop_
 _atom_site_type_symbol
 _atom_site_label
 _atom_site_symmetry_multiplicity
 _atom_site_fract_x
 _atom_site_fract_y
 _atom_site_fract_z
 _atom_site_occupancy
  C  C1  1  0.75747552  0.89004707  0.05518152  1.0
  C  C2  1  0.61949542  0.83872344  0.09119746  1.0
  C  C3  1  0.63106925  0.75470626  0.11368628  1.0
  C  C4  1  0.50397035  0.70961142  0.14858441  1.0
  C  C5  1  0.36511861  0.74914874  0.16067750  1.0
  C  C6  1  0.34943452  0.83171988  0.13779825  1.0
  C  C7  1  0.47735983  0.87595699  0.10321182  1.0
  C  C8  1  0.20458371  0.75880922  0.24366575  1.0
  C  C9  1  0.04263166  0.72326060  0.26642781  1.0
  C  C10  1  0.00382963  0.77512010  0.31714592  1.0
  C  C11  1  0.12519474  0.86273842  0.34564663  1.0
  C  C12  1  0.28601818  0.89726418  0.32194019  1.0
  C  C13  1  0.32725895  0.84612584  0.27138628  1.0
  C  C14  1  0.08504598  0.91626538  0.40128484  1.0
  C  C15  1  0.84624983  0.26955054  0.99043744  1.0
  C  C16  1  0.75542681  0.34014856  0.99478055  1.0
  C  C17  1  0.60410198  0.32590398  0.02582749  1.0
  C  C18  1  0.55638327  0.24140703  0.05291097  1.0
  C  C19  1  0.65329145  0.17357955  0.04614288  1.0
  C  C20  1  0.49597758  0.39531095  0.02838053  1.0
  C  C21  1  0.33683877  0.37705570  0.06239894  1.0
  C  C43  1  0.86742804  0.10995287  0.44481848  1.0
  C  C44  1  0.78077198  0.16127660  0.40880249  1.0
  C  C45  1  0.87636265  0.24529369  0.38631372  1.0
  C  C46  1  0.79435903  0.29038862  0.35141559  1.0
  C  C47  1  0.61596994  0.25085129  0.33932247  1.0
  C  C48  1  0.51771474  0.16828023  0.36220171  1.0
  C  C49  1  0.60140274  0.12404298  0.39678813  1.0
  C  C50  1  0.44577455  0.24119077  0.25633421  1.0
  C  C51  1  0.31937115  0.27673943  0.23357216  1.0
  C  C52  1  0.22870960  0.22487989  0.18285408  1.0
  C  C53  1  0.26245633  0.13726154  0.15435332  1.0
  C  C54  1  0.38875401  0.10273575  0.17805978  1.0
  C  C55  1  0.48113312  0.15387414  0.22861371  1.0
  C  C56  1  0.16878061  0.08373462  0.09871513  1.0
  C  C57  1  0.57669933  0.73044948  0.50956257  1.0
  C  C58  1  0.41527828  0.65985145  0.50521947  1.0
  C  C59  1  0.27819803  0.67409606  0.47417254  1.0
  C  C60  1  0.31497630  0.75859299  0.44708908  1.0
  C  C61  1  0.47971196  0.82642047  0.45385713  1.0
  C  C62  1  0.10066666  0.60468907  0.47161950  1.0
  C  C63  1  0.95978308  0.62294429  0.43760108  1.0
  C  C85  1  0.24252452  0.10995284  0.94481847  1.0
  C  C86  1  0.38050455  0.16127665  0.90880251  1.0
  C  C87  1  0.36893077  0.24529385  0.88631370  1.0
  C  C88  1  0.49602956  0.29038864  0.85141559  1.0
  C  C89  1  0.63488124  0.25085131  0.83932251  1.0
  C  C90  1  0.65056533  0.16828021  0.86220175  1.0
  C  C91  1  0.52264010  0.12404298  0.89678815  1.0
  C  C92  1  0.79541624  0.24119079  0.75633425  1.0
  C  C93  1  0.95736827  0.27673940  0.73357220  1.0
  C  C94  1  0.99617034  0.22487988  0.68285410  1.0
  C  C95  1  0.87480521  0.13726154  0.65435340  1.0
  C  C96  1  0.71398180  0.10273580  0.67805983  1.0
  C  C97  1  0.67274100  0.15387415  0.72861373  1.0
  C  C98  1  0.91495404  0.08373463  0.59871517  1.0
  C  C99  1  0.15375004  0.73044936  0.00956257  1.0
  C  C100  1  0.24457313  0.65985137  0.00521945  1.0
  C  C101  1  0.39589797  0.67409599  0.97417252  1.0
  C  C102  1  0.44361667  0.75859293  0.94708907  1.0
  C  C103  1  0.34670844  0.82642041  0.95385714  1.0
  C  C104  1  0.50402242  0.60468904  0.97161948  1.0
  C  C105  1  0.66316122  0.62294427  0.93760106  1.0
  C  C127  1  0.13257217  0.89004726  0.55518153  1.0
  C  C128  1  0.21922815  0.83872346  0.59119751  1.0
  C  C129  1  0.12363718  0.75470635  0.61368629  1.0
  C  C130  1  0.20564105  0.70961142  0.64858440  1.0
  C  C131  1  0.38403025  0.74914874  0.66067753  1.0
  C  C132  1  0.48228545  0.83171981  0.63779827  1.0
  C  C133  1  0.39859735  0.87595701  0.60321186  1.0
  C  C134  1  0.55422556  0.75880924  0.74366577  1.0
  C  C135  1  0.68062897  0.72326058  0.76642780  1.0
  C  C136  1  0.77129053  0.77512008  0.81714590  1.0
  C  C137  1  0.73754378  0.86273844  0.84564665  1.0
  C  C138  1  0.61124606  0.89726419  0.82194022  1.0
  C  C139  1  0.51886693  0.84612585  0.77138630  1.0
  C  C140  1  0.83121955  0.91626533  0.90128486  1.0
  C  C141  1  0.42330068  0.26955053  0.49043747  1.0
  C  C142  1  0.58472172  0.34014855  0.49478055  1.0
  C  C143  1  0.72180197  0.32590395  0.52582748  1.0
  C  C144  1  0.68502374  0.24140703  0.55291095  1.0
  C  C145  1  0.52028805  0.17357952  0.54614289  1.0
  C  C146  1  0.89933336  0.39531094  0.52838053  1.0
  C  C147  1  0.04021692  0.37705569  0.56239894  1.0
  H  H1  1  0.74134308  0.72576087  0.10397982  1.0
  H  H2  1  0.51133286  0.64473989  0.16694379  1.0
  H  H3  1  0.23840261  0.86065777  0.14654821  1.0
  H  H4  1  0.46552940  0.93883890  0.08393803  1.0
  H  H5  1  0.94940711  0.65526112  0.24386311  1.0
  H  H6  1  0.87847827  0.74859437  0.33549346  1.0
  H  H7  1  0.38077351  0.96471068  0.34394197  1.0
  H  H8  1  0.45371857  0.87324749  0.25385293  1.0
  H  H9  1  0.96256638  0.27641364  0.96612854  1.0
  H  H10  1  0.79730558  0.40464768  0.97302555  1.0
  H  H11  1  0.44268940  0.22624824  0.07827035  1.0
  H  H12  1  0.61696239  0.10523597  0.06484733  1.0
  H  H13  1  0.37398656  0.39296030  0.10824787  1.0
  H  H14  1  0.25816847  0.29786079  0.05283875  1.0
  H  H15  1  0.25910781  0.42575697  0.05384518  1.0
  H  H31  1  0.01558219  0.27423925  0.39602019  1.0
  H  H32  1  0.86659303  0.35526025  0.33305622  1.0
  H  H33  1  0.37774479  0.13934230  0.35345172  1.0
  H  H34  1  0.52669067  0.06116111  0.41606189  1.0
  H  H35  1  0.29414593  0.34473888  0.25613685  1.0
  H  H36  1  0.12988395  0.25140562  0.16450650  1.0
  H  H37  1  0.41606281  0.03528921  0.15605805  1.0
  H  H38  1  0.58047104  0.12675250  0.24614707  1.0
  H  H39  1  0.68615276  0.72358634  0.53387147  1.0
  H  H40  1  0.39265795  0.59535235  0.52697448  1.0
  H  H41  1  0.21644121  0.77375182  0.42172969  1.0
  H  H42  1  0.51172651  0.89476404  0.43515271  1.0
  H  H43  1  0.98102630  0.60703969  0.39175214  1.0
  H  H44  1  0.96030764  0.70213920  0.44716125  1.0
  H  H45  1  0.83335084  0.57424301  0.44615483  1.0
  H  H61  1  0.25865693  0.27423927  0.89602017  1.0
  H  H62  1  0.48866716  0.35526024  0.83305623  1.0
  H  H63  1  0.76159729  0.13934230  0.85345178  1.0
  H  H64  1  0.53447030  0.06116110  0.91606191  1.0
  H  H65  1  0.05059289  0.34473887  0.75613689  1.0
  H  H66  1  0.12152167  0.25140559  0.66450654  1.0
  H  H67  1  0.61922642  0.03528928  0.65605808  1.0
  H  H68  1  0.54628142  0.12675251  0.74614711  1.0
  H  H69  1  0.03743348  0.72358623  0.03387146  1.0
  H  H70  1  0.20269437  0.59535224  0.02697445  1.0
  H  H71  1  0.55731052  0.77375176  0.92172966  1.0
  H  H72  1  0.38303744  0.89476399  0.93515271  1.0
  H  H73  1  0.62601343  0.60703967  0.89175213  1.0
  H  H74  1  0.74183153  0.70213918  0.94716124  1.0
  H  H75  1  0.74089217  0.57424299  0.94615482  1.0
  H  H91  1  0.98441790  0.72576090  0.60397981  1.0
  H  H92  1  0.13340704  0.64473987  0.66694379  1.0
  H  H93  1  0.62225538  0.86065774  0.64654822  1.0
  H  H94  1  0.47330954  0.93883886  0.58393805  1.0
  H  H95  1  0.70585405  0.65526109  0.74386310  1.0
  H  H96  1  0.87011616  0.74859433  0.83549344  1.0
  H  H97  1  0.58393724  0.96471070  0.84394200  1.0
  H  H98  1  0.41952897  0.87324750  0.75385295  1.0
  H  H99  1  0.31384722  0.27641365  0.46612857  1.0
  H  H100  1  0.60734203  0.40464765  0.47302554  1.0
  H  H101  1  0.78355880  0.22624821  0.57827033  1.0
  H  H102  1  0.48827355  0.10523597  0.56484732  1.0
  H  H103  1  0.01897373  0.39296030  0.60824789  1.0
  H  H104  1  0.03969235  0.29786079  0.55283876  1.0
  H  H105  1  0.16664916  0.42575698  0.55384518  1.0
  N  N1  1  0.79468998  0.18664423  0.01501053  1.0
  N  N2  1  0.55086941  0.46820344  0.99912655  1.0
  N  N5  1  0.60804583  0.81335574  0.48498949  1.0
  N  N6  1  0.08266595  0.53179657  0.50087348  1.0
  N  N9  1  0.20530988  0.81335569  0.98498949  1.0
  N  N10  1  0.44913058  0.53179654  0.00087346  1.0
  N  N13  1  0.39195421  0.18664427  0.51501055  1.0
  N  N14  1  0.91733405  0.46820347  0.49912657  1.0
  O  O1  1  0.74684649  0.97234926  0.04187993  1.0
  O  O2  1  0.87578201  0.84837581  0.04078777  1.0
  O  O3  1  0.23777200  0.70157689  0.19457619  1.0
  O  O4  1  0.94410284  0.87369894  0.42290277  1.0
  O  O5  1  0.19543498  0.99884247  0.42353334  1.0
  O  O11  1  0.77449640  0.02765054  0.45811993  1.0
  O  O12  1  0.02740554  0.15162404  0.45921239  1.0
  O  O13  1  0.53619518  0.29842313  0.30542375  1.0
  O  O14  1  0.07040399  0.12630115  0.07709721  1.0
  O  O15  1  0.19659228  0.00115743  0.07646660  1.0
  O  O21  1  0.25315363  0.02765079  0.95812005  1.0
  O  O22  1  0.12421793  0.15162409  0.95921225  1.0
  O  O23  1  0.76222793  0.29842313  0.80542380  1.0
  O  O24  1  0.05589705  0.12630102  0.57709725  1.0
  O  O25  1  0.80456490  0.00115748  0.57646667  1.0
  O  O31  1  0.22550362  0.97234952  0.54188011  1.0
  O  O32  1  0.97259449  0.84837598  0.54078759  1.0
  O  O33  1  0.46380489  0.70157687  0.69457621  1.0
  O  O34  1  0.92959608  0.87369884  0.92290278  1.0
  O  O35  1  0.80340774  0.99884256  0.92353338  1.0
  Zn  Zn1  1  0.91723205  0.07744633  0.00198927  1.0
  Zn  Zn3  1  0.83978579  0.92255369  0.49801070  1.0
  Zn  Zn5  1  0.08276800  0.92255367  0.99801072  1.0
  Zn  Zn7  1  0.16021420  0.07744636  0.50198931  1.0
