# generated using pymatgen
data_Cd3H14(C5O2)6
_symmetry_space_group_name_H-M   'P 1'
_cell_length_a   7.91397000
_cell_length_b   10.10928000
_cell_length_c   13.46554325
_cell_angle_alpha   68.51402678
_cell_angle_beta   87.53864236
_cell_angle_gamma   74.69556000
_symmetry_Int_Tables_number   1
_chemical_formula_structural   Cd3H14(C5O2)6
_chemical_formula_sum   'Cd3 H14 C30 O12'
_cell_volume   965.15590839
_cell_formula_units_Z   1
loop_
 _symmetry_equiv_pos_site_id
 _symmetry_equiv_pos_as_xyz
  1  'x, y, z'
loop_
 _atom_site_type_symbol
 _atom_site_label
 _atom_site_symmetry_multiplicity
 _atom_site_fract_x
 _atom_site_fract_y
 _atom_site_fract_z
 _atom_site_occupancy
  Cd  Cd1  1  0.14319000  0.79731000  0.54466000  1.0
  Cd  Cd2  1  0.85681000  0.20269000  0.45534000  1.0
  Cd  Cd3  1  0.50000000  0.50000000  0.50000000  1.0
  H  H1  1  0.17184000  0.30737000  0.54869000  1.0
  H  H2  1  0.22123000  0.92015000  0.83114000  1.0
  H  H3  1  0.17942000  0.34044000  0.85775000  1.0
  H  H4  1  0.41393000  0.84831000  0.96466000  1.0
  H  H5  1  0.45777000  0.70889000  0.16077000  1.0
  H  H6  1  0.12458000  0.08203000  0.21617000  1.0
  H  H7  1  0.06869000  0.21958000  0.01953000  1.0
  H  H8  1  0.82816000  0.69264000  0.45131000  1.0
  H  H9  1  0.77877000  0.07985000  0.16886000  1.0
  H  H10  1  0.82058000  0.65957000  0.14225000  1.0
  H  H11  1  0.58606000  0.15170000  0.03534000  1.0
  H  H12  1  0.54223000  0.29111000  0.83923000  1.0
  H  H13  1  0.87542000  0.91796000  0.78384000  1.0
  H  H14  1  0.93131000  0.78043000  0.98047000  1.0
  C  C1  1  0.17528000  0.33945000  0.69873000  1.0
  C  C2  1  0.18047000  0.25555000  0.63536000  1.0
  C  C3  1  0.19372000  0.10469000  0.68418000  1.0
  C  C4  1  0.21022000  0.03767000  0.79564000  1.0
  C  C5  1  0.20748000  0.11954000  0.86054000  1.0
  C  C6  1  0.18431000  0.27230000  0.81059000  1.0
  C  C7  1  0.23462000  0.04251000  0.97775000  1.0
  C  C8  1  0.34544000  0.89816000  0.01929000  1.0
  C  C9  1  0.37294000  0.82063000  0.12885000  1.0
  C  C10  1  0.29261000  0.88642000  0.20035000  1.0
  C  C11  1  0.18555000  0.03174000  0.16001000  1.0
  C  C12  1  0.15595000  0.10847000  0.04989000  1.0
  C  C13  1  0.15959000  0.50003000  0.64822000  1.0
  C  C14  1  0.18692000  0.01457000  0.61917000  1.0
  C  C15  1  0.32003000  0.80113000  0.31805000  1.0
  C  C16  1  0.82472000  0.66055000  0.30127000  1.0
  C  C17  1  0.81953000  0.74446000  0.36464000  1.0
  C  C18  1  0.80628000  0.89531000  0.31582000  1.0
  C  C19  1  0.78978000  0.96234000  0.20436000  1.0
  C  C20  1  0.79252000  0.88046000  0.13946000  1.0
  C  C21  1  0.81568000  0.72770000  0.18941000  1.0
  C  C22  1  0.76538000  0.95749000  0.02225000  1.0
  C  C23  1  0.65456000  0.10184000  0.98071000  1.0
  C  C24  1  0.62705000  0.17938000  0.87115000  1.0
  C  C25  1  0.70738000  0.11358000  0.79965000  1.0
  C  C26  1  0.81445000  0.96827000  0.83999000  1.0
  C  C27  1  0.84405000  0.89154000  0.95011000  1.0
  C  C28  1  0.84041000  0.49997000  0.35178000  1.0
  C  C29  1  0.81308000  0.98543000  0.38083000  1.0
  C  C30  1  0.67997000  0.19887000  0.68195000  1.0
  O  O1  1  0.09067000  0.58675000  0.69468000  1.0
  O  O2  1  0.21684000  0.55064000  0.55192000  1.0
  O  O3  1  0.13407000  0.07841000  0.51994000  1.0
  O  O4  1  0.23360000  0.87418000  0.66486000  1.0
  O  O5  1  0.41607000  0.66717000  0.34498000  1.0
  O  O6  1  0.25047000  0.86534000  0.38058000  1.0
  O  O7  1  0.90933000  0.41325000  0.30532000  1.0
  O  O8  1  0.78316000  0.44936000  0.44808000  1.0
  O  O9  1  0.86593000  0.92159000  0.48006000  1.0
  O  O10  1  0.76639000  0.12582000  0.33514000  1.0
  O  O11  1  0.58393000  0.33283000  0.65502000  1.0
  O  O12  1  0.74953000  0.13465000  0.61943000  1.0
