# generated using pymatgen
data_CdH10(C3O)6
_symmetry_space_group_name_H-M   'P 1'
_cell_length_a   11.09109000
_cell_length_b   15.57743000
_cell_length_c   19.25804000
_cell_angle_alpha   98.06332000
_cell_angle_beta   89.89617000
_cell_angle_gamma   89.89209000
_symmetry_Int_Tables_number   1
_chemical_formula_structural   CdH10(C3O)6
_chemical_formula_sum   'Cd6 H60 C108 O36'
_cell_volume   3294.31746227
_cell_formula_units_Z   6
loop_
 _symmetry_equiv_pos_site_id
 _symmetry_equiv_pos_as_xyz
  1  'x, y, z'
loop_
 _atom_site_type_symbol
 _atom_site_label
 _atom_site_symmetry_multiplicity
 _atom_site_fract_x
 _atom_site_fract_y
 _atom_site_fract_z
 _atom_site_occupancy
  Cd  Cd1  1  0.44794000  0.49879000  0.74965000  1.0
  Cd  Cd2  1  0.46225000  0.44434000  0.07747000  1.0
  Cd  Cd3  1  0.53776000  0.55565000  0.92253000  1.0
  Cd  Cd4  1  0.55207000  0.50121000  0.25035000  1.0
  Cd  Cd5  1  0.46091000  0.55694000  0.42318000  1.0
  Cd  Cd6  1  0.53910000  0.44306000  0.57681000  1.0
  H  H1  1  0.76818000  0.08698000  0.73535000  1.0
  H  H2  1  0.18283000  0.83739000  0.54752000  1.0
  H  H3  1  0.06641000  0.18079000  0.48140000  1.0
  H  H4  1  0.12781000  0.67059000  0.77415000  1.0
  H  H5  1  0.29992000  0.15078000  0.73798000  1.0
  H  H6  1  0.59092000  0.29264000  0.26985000  1.0
  H  H7  1  0.86393000  0.07006000  0.12348000  1.0
  H  H8  1  0.01441000  0.16897000  0.32633000  1.0
  H  H9  1  0.23183000  0.91301000  0.26465000  1.0
  H  H10  1  0.75849000  0.01215000  0.58297000  1.0
  H  H11  1  0.71759000  0.18313000  0.64559000  1.0
  H  H12  1  0.27198000  0.30376000  0.39824000  1.0
  H  H13  1  0.70637000  0.30077000  0.48434000  1.0
  H  H14  1  0.06769000  0.81962000  0.01795000  1.0
  H  H15  1  0.98560000  0.83102000  0.67367000  1.0
  H  H16  1  0.31873000  0.40010000  0.30771000  1.0
  H  H17  1  0.87220000  0.32941000  0.22585000  1.0
  H  H18  1  0.18240000  0.16308000  0.95235000  1.0
  H  H19  1  0.68332000  0.40068000  0.80797000  1.0
  H  H20  1  0.31669000  0.59932000  0.19203000  1.0
  H  H21  1  0.86989000  0.67305000  0.27448000  1.0
  H  H22  1  0.98528000  0.16915000  0.82662000  1.0
  H  H23  1  0.03367000  0.78455000  0.30095000  1.0
  H  H24  1  0.24152000  0.98784000  0.41703000  1.0
  H  H25  1  0.29364000  0.69922000  0.51566000  1.0
  H  H26  1  0.72766000  0.30387000  0.89866000  1.0
  H  H27  1  0.27235000  0.69613000  0.10134000  1.0
  H  H28  1  0.93232000  0.18038000  0.98205000  1.0
  H  H29  1  0.23240000  0.08691000  0.23485000  1.0
  H  H30  1  0.24136000  0.01177000  0.08248000  1.0
  H  H31  1  0.13589000  0.06958000  0.62286000  1.0
  H  H32  1  0.69927000  0.15136000  0.23827000  1.0
  H  H33  1  0.70343000  0.70043000  0.01592000  1.0
  H  H34  1  0.96615000  0.78435000  0.80074000  1.0
  H  H35  1  0.01473000  0.83084000  0.17338000  1.0
  H  H36  1  0.77170000  0.29511000  0.00906000  1.0
  H  H37  1  0.93360000  0.81921000  0.51860000  1.0
  H  H38  1  0.22991000  0.29266000  0.50845000  1.0
  H  H39  1  0.86412000  0.93042000  0.37714000  1.0
  H  H40  1  0.81718000  0.16261000  0.45248000  1.0
  H  H41  1  0.41038000  0.29069000  0.76882000  1.0
  H  H42  1  0.28452000  0.18283000  0.14523000  1.0
  H  H43  1  0.68129000  0.59989000  0.69229000  1.0
  H  H44  1  0.81761000  0.83691000  0.04765000  1.0
  H  H45  1  0.28242000  0.81687000  0.35441000  1.0
  H  H46  1  0.13012000  0.32695000  0.72552000  1.0
  H  H47  1  0.77010000  0.70733000  0.49155000  1.0
  H  H48  1  0.76761000  0.91309000  0.76514000  1.0
  H  H49  1  0.72803000  0.69624000  0.60176000  1.0
  H  H50  1  0.75865000  0.98822000  0.91752000  1.0
  H  H51  1  0.03386000  0.21564000  0.19926000  1.0
  H  H52  1  0.22831000  0.70488000  0.99094000  1.0
  H  H53  1  0.71549000  0.81717000  0.85477000  1.0
  H  H54  1  0.70009000  0.84921000  0.26202000  1.0
  H  H55  1  0.96634000  0.21544000  0.69905000  1.0
  H  H56  1  0.13608000  0.92994000  0.87652000  1.0
  H  H57  1  0.29658000  0.29957000  0.98408000  1.0
  H  H58  1  0.58963000  0.70930000  0.23118000  1.0
  H  H59  1  0.30074000  0.84863000  0.76173000  1.0
  H  H60  1  0.40909000  0.70736000  0.73015000  1.0
  C  C1  1  0.25180000  0.80949000  0.17784000  1.0
  C  C2  1  0.70610000  0.26943000  0.43018000  1.0
  C  C3  1  0.36169000  0.26226000  0.80892000  1.0
  C  C4  1  0.86220000  0.91643000  0.62882000  1.0
  C  C5  1  0.29991000  0.18471000  0.79128000  1.0
  C  C6  1  0.30548000  0.70268000  0.27857000  1.0
  C  C7  1  0.29391000  0.73056000  0.56982000  1.0
  C  C8  1  0.88473000  0.70518000  0.32763000  1.0
  C  C9  1  0.29965000  0.81461000  0.70844000  1.0
  C  C10  1  0.74714000  0.84488000  0.74932000  1.0
  C  C11  1  0.69865000  0.66853000  0.70761000  1.0
  C  C12  1  0.86218000  0.08371000  0.87152000  1.0
  C  C13  1  0.76482000  0.85037000  0.15694000  1.0
  C  C14  1  0.23509000  0.85016000  0.65682000  1.0
  C  C15  1  0.94135000  0.02770000  0.12492000  1.0
  C  C16  1  0.25222000  0.84468000  0.24892000  1.0
  C  C17  1  0.80963000  0.68487000  0.38170000  1.0
  C  C18  1  0.57458000  0.38894000  0.39598000  1.0
  C  C19  1  0.23226000  0.19131000  0.91243000  1.0
  C  C20  1  0.84604000  0.00570000  0.89826000  1.0
  C  C21  1  0.29554000  0.37479000  0.63311000  1.0
  C  C22  1  0.81235000  0.31826000  0.11876000  1.0
  C  C23  1  0.63988000  0.26367000  0.30952000  1.0
  C  C24  1  0.13783000  0.91629000  0.12848000  1.0
  C  C25  1  0.27469000  0.27835000  0.34274000  1.0
  C  C26  1  0.34489000  0.64730000  0.33114000  1.0
  C  C27  1  0.64158000  0.30655000  0.37896000  1.0
  C  C28  1  0.84581000  0.99451000  0.60215000  1.0
  C  C29  1  0.25287000  0.15512000  0.25068000  1.0
  C  C30  1  0.13781000  0.08357000  0.37118000  1.0
  C  C31  1  0.05477000  0.04965000  0.10089000  1.0
  C  C32  1  0.57097000  0.61344000  0.10420000  1.0
  C  C33  1  0.36114000  0.30481000  0.87847000  1.0
  C  C34  1  0.88686000  0.29696000  0.17271000  1.0
  C  C35  1  0.05512000  0.95031000  0.39915000  1.0
  C  C36  1  0.11315000  0.70304000  0.82729000  1.0
  C  C37  1  0.18766000  0.68173000  0.88124000  1.0
  C  C38  1  0.30760000  0.29679000  0.22118000  1.0
  C  C39  1  0.29168000  0.62051000  0.86635000  1.0
  C  C40  1  0.30137000  0.33146000  0.29239000  1.0
  C  C41  1  0.05838000  0.02758000  0.62464000  1.0
  C  C42  1  0.92932000  0.05131000  0.34963000  1.0
  C  C43  1  0.08084000  0.78565000  0.96528000  1.0
  C  C44  1  0.98911000  0.19178000  0.08940000  1.0
  C  C45  1  0.72532000  0.72165000  0.65726000  1.0
  C  C46  1  0.72567000  0.27862000  0.84313000  1.0
  C  C47  1  0.02406000  0.76632000  0.84186000  1.0
  C  C48  1  0.97525000  0.76707000  0.34208000  1.0
  C  C49  1  0.69241000  0.70320000  0.77882000  1.0
  C  C50  1  0.74779000  0.15532000  0.75108000  1.0
  C  C51  1  0.01063000  0.19147000  0.58916000  1.0
  C  C52  1  0.07069000  0.94868000  0.65037000  1.0
  C  C53  1  0.70026000  0.33191000  0.79267000  1.0
  C  C54  1  0.63832000  0.73773000  0.19107000  1.0
  C  C55  1  0.63887000  0.69518000  0.12153000  1.0
  C  C56  1  0.42543000  0.61105000  0.60402000  1.0
  C  C57  1  0.15398000  0.99429000  0.10174000  1.0
  C  C58  1  0.92920000  0.94866000  0.15041000  1.0
  C  C59  1  0.08057000  0.21370000  0.53426000  1.0
  C  C60  1  0.70833000  0.37948000  0.13365000  1.0
  C  C61  1  0.28154000  0.20854000  0.20072000  1.0
  C  C62  1  0.72004000  0.20884000  0.70107000  1.0
  C  C63  1  0.11528000  0.29481000  0.67237000  1.0
  C  C64  1  0.94524000  0.95035000  0.89911000  1.0
  C  C65  1  0.83078000  0.27783000  0.04984000  1.0
  C  C66  1  0.76775000  0.80868000  0.08756000  1.0
  C  C67  1  0.82941000  0.72434000  0.45071000  1.0
  C  C68  1  0.35843000  0.69344000  0.62104000  1.0
  C  C69  1  0.25190000  0.19036000  0.32179000  1.0
  C  C70  1  0.15420000  0.00549000  0.39785000  1.0
  C  C71  1  0.19038000  0.31512000  0.61829000  1.0
  C  C72  1  0.97387000  0.10801000  0.84686000  1.0
  C  C73  1  0.94163000  0.97242000  0.37536000  1.0
  C  C74  1  0.70385000  0.73169000  0.07010000  1.0
  C  C75  1  0.42904000  0.38655000  0.89580000  1.0
  C  C76  1  0.76492000  0.14984000  0.34318000  1.0
  C  C77  1  0.05866000  0.97229000  0.87508000  1.0
  C  C78  1  0.71847000  0.79145000  0.79928000  1.0
  C  C79  1  0.91944000  0.78630000  0.46574000  1.0
  C  C80  1  0.02476000  0.23293000  0.65792000  1.0
  C  C81  1  0.23520000  0.14962000  0.84306000  1.0
  C  C82  1  0.65247000  0.64803000  0.83132000  1.0
  C  C83  1  0.65512000  0.35270000  0.66886000  1.0
  C  C84  1  0.69453000  0.29731000  0.72143000  1.0
  C  C85  1  0.02614000  0.89199000  0.15314000  1.0
  C  C86  1  0.23173000  0.80847000  0.58743000  1.0
  C  C87  1  0.74822000  0.19050000  0.82216000  1.0
  C  C88  1  0.70010000  0.81529000  0.20872000  1.0
  C  C89  1  0.01090000  0.80822000  0.91060000  1.0
  C  C90  1  0.27434000  0.72138000  0.15687000  1.0
  C  C91  1  0.02604000  0.10790000  0.34669000  1.0
  C  C92  1  0.29975000  0.66808000  0.20733000  1.0
  C  C93  1  0.91917000  0.21435000  0.03472000  1.0
  C  C94  1  0.70447000  0.62521000  0.36689000  1.0
  C  C95  1  0.36014000  0.73632000  0.69048000  1.0
  C  C96  1  0.70036000  0.18539000  0.29156000  1.0
  C  C97  1  0.16924000  0.72216000  0.95016000  1.0
  C  C98  1  0.74811000  0.80964000  0.67821000  1.0
  C  C99  1  0.97397000  0.89209000  0.65331000  1.0
  C  C100  1  0.97595000  0.23368000  0.15814000  1.0
  C  C101  1  0.76828000  0.19153000  0.41257000  1.0
  C  C102  1  0.27997000  0.79115000  0.29893000  1.0
  C  C103  1  0.07081000  0.05134000  0.84959000  1.0
  C  C104  1  0.94489000  0.04968000  0.60085000  1.0
  C  C105  1  0.29616000  0.26830000  0.92990000  1.0
  C  C106  1  0.34754000  0.35196000  0.16868000  1.0
  C  C107  1  0.98938000  0.80853000  0.41084000  1.0
  C  C108  1  0.17061000  0.27565000  0.54929000  1.0
  O  O1  1  0.31973000  0.40115000  0.69739000  1.0
  O  O2  1  0.68505000  0.40652000  0.19797000  1.0
  O  O3  1  0.61775000  0.43085000  0.69048000  1.0
  O  O4  1  0.47306000  0.57529000  0.65327000  1.0
  O  O5  1  0.52695000  0.42470000  0.34673000  1.0
  O  O6  1  0.76320000  0.13880000  0.87486000  1.0
  O  O7  1  0.47359000  0.42427000  0.84669000  1.0
  O  O8  1  0.38768000  0.42919000  0.19052000  1.0
  O  O9  1  0.92453000  0.12590000  0.57330000  1.0
  O  O10  1  0.64629000  0.60788000  0.42037000  1.0
  O  O11  1  0.18271000  0.93069000  0.67717000  1.0
  O  O12  1  0.44050000  0.57320000  0.54069000  1.0
  O  O13  1  0.34560000  0.32412000  0.10346000  1.0
  O  O14  1  0.55951000  0.42679000  0.45931000  1.0
  O  O15  1  0.92529000  0.87426000  0.92674000  1.0
  O  O16  1  0.44791000  0.42175000  0.95938000  1.0
  O  O17  1  0.34979000  0.60254000  0.91968000  1.0
  O  O18  1  0.55210000  0.57825000  0.04062000  1.0
  O  O19  1  0.31496000  0.59348000  0.80203000  1.0
  O  O20  1  0.76373000  0.86106000  0.62532000  1.0
  O  O21  1  0.34539000  0.67620000  0.39624000  1.0
  O  O22  1  0.07548000  0.87410000  0.42669000  1.0
  O  O23  1  0.65441000  0.67588000  0.89654000  1.0
  O  O24  1  0.23629000  0.13893000  0.37468000  1.0
  O  O25  1  0.18273000  0.06931000  0.82272000  1.0
  O  O26  1  0.23681000  0.86120000  0.12514000  1.0
  O  O27  1  0.38226000  0.56915000  0.30952000  1.0
  O  O28  1  0.61233000  0.57080000  0.80948000  1.0
  O  O29  1  0.81728000  0.93069000  0.17728000  1.0
  O  O30  1  0.65022000  0.39745000  0.08032000  1.0
  O  O31  1  0.52642000  0.57572000  0.15331000  1.0
  O  O32  1  0.68028000  0.59884000  0.30261000  1.0
  O  O33  1  0.35372000  0.39211000  0.57963000  1.0
  O  O34  1  0.65462000  0.32379000  0.60375000  1.0
  O  O35  1  0.81730000  0.06930000  0.32283000  1.0
  O  O36  1  0.07472000  0.12574000  0.07325000  1.0
