# generated using pymatgen
data_Tb2ZnH12C32(NO4)4
_symmetry_space_group_name_H-M   'P 1'
_cell_length_a   12.84756000
_cell_length_b   13.31382000
_cell_length_c   14.86551000
_cell_angle_alpha   63.41662000
_cell_angle_beta   64.67329000
_cell_angle_gamma   89.95581000
_symmetry_Int_Tables_number   1
_chemical_formula_structural   Tb2ZnH12C32(NO4)4
_chemical_formula_sum   'Tb4 Zn2 H24 C64 N8 O32'
_cell_volume   1997.38173874
_cell_formula_units_Z   2
loop_
 _symmetry_equiv_pos_site_id
 _symmetry_equiv_pos_as_xyz
  1  'x, y, z'
loop_
 _atom_site_type_symbol
 _atom_site_label
 _atom_site_symmetry_multiplicity
 _atom_site_fract_x
 _atom_site_fract_y
 _atom_site_fract_z
 _atom_site_occupancy
  Tb  Tb0  1  0.73659000  0.27759000  0.31144000  1
  Tb  Tb1  1  0.04661000  0.72300000  0.68784000  1
  Tb  Tb2  1  0.54492000  0.58853000  0.68837000  1
  Tb  Tb3  1  0.23566000  0.41143000  0.31118000  1
  Zn  Zn4  1  0.87329000  0.50008000  0.00026000  1
  Zn  Zn5  1  0.37090000  0.49962000  0.00047000  1
  H  H6  1  0.92236000  0.80194000  0.01957000  1
  H  H7  1  0.68787000  0.55346000  0.37353000  1
  H  H8  1  0.68533000  0.07652000  0.12247000  1
  H  H9  1  0.67492000  0.43621000  0.96526000  1
  H  H10  1  0.77397000  0.91411000  0.26991000  1
  H  H11  1  0.68749000  0.24157000  0.79685000  1
  H  H12  1  0.94016000  0.19676000  0.98253000  1
  H  H13  1  0.06699000  0.44780000  0.62714000  1
  H  H14  1  0.80720000  0.92308000  0.87781000  1
  H  H15  1  0.64047000  0.56471000  0.03122000  1
  H  H16  1  0.04523000  0.08689000  0.73003000  1
  H  H17  1  0.48699000  0.75653000  0.20331000  1
  H  H18  1  0.43878000  0.81967000  0.98181000  1
  H  H19  1  0.56502000  0.92648000  0.62583000  1
  H  H20  1  0.30507000  0.19754000  0.87885000  1
  H  H21  1  0.13987000  0.40081000  0.03567000  1
  H  H22  1  0.54664000  0.18234000  0.73125000  1
  H  H23  1  0.98621000  0.03782000  0.20548000  1
  H  H24  1  0.42208000  0.17775000  0.01875000  1
  H  H25  1  0.19085000  0.07396000  0.37307000  1
  H  H26  1  0.18207000  0.79978000  0.12397000  1
  H  H27  1  0.17474000  0.59839000  0.96477000  1
  H  H28  1  0.27388000  0.81589000  0.27044000  1
  H  H29  1  0.19021000  0.96180000  0.79558000  1
  C  C30  1  0.65901000  0.44983000  0.78869000  1
  C  C31  1  0.64766000  0.69483000  0.45819000  1
  C  C32  1  0.72428000  0.72987000  0.33513000  1
  C  C33  1  0.86748000  0.78117000  0.10780000  1
  C  C34  1  0.80979000  0.66705000  0.19403000  1
  C  C35  1  0.73577000  0.64189000  0.30702000  1
  C  C36  1  0.81942000  0.57042000  0.16822000  1
  C  C37  1  0.85141000  0.87054000  0.13493000  1
  C  C38  1  0.68363000  0.15280000  0.05285000  1
  C  C39  1  0.67966000  0.35529000  0.96410000  1
  C  C40  1  0.78321000  0.84450000  0.24940000  1
  C  C41  1  0.68523000  0.25835000  0.05214000  1
  C  C42  1  0.67813000  0.34882000  0.87343000  1
  C  C43  1  0.68490000  0.14739000  0.96028000  1
  C  C44  1  0.68573000  0.24623000  0.86869000  1
  C  C45  1  0.69350000  0.26701000  0.14452000  1
  C  C46  1  0.45012000  0.54969000  0.20842000  1
  C  C47  1  0.11188000  0.30813000  0.54151000  1
  C  C48  1  0.06311000  0.27134000  0.66523000  1
  C  C49  1  0.97477000  0.21826000  0.89384000  1
  C  C50  1  0.00502000  0.33281000  0.80750000  1
  C  C51  1  0.04648000  0.35889000  0.69387000  1
  C  C52  1  0.98886000  0.42962000  0.83294000  1
  C  C53  1  0.98638000  0.12933000  0.86601000  1
  C  C54  1  0.73653000  0.84669000  0.94686000  1
  C  C55  1  0.64434000  0.64493000  0.03360000  1
  C  C56  1  0.03410000  0.15611000  0.75107000  1
  C  C57  1  0.73743000  0.74170000  0.94650000  1
  C  C58  1  0.55306000  0.65067000  0.12476000  1
  C  C59  1  0.64595000  0.85137000  0.03984000  1
  C  C60  1  0.55612000  0.75243000  0.13094000  1
  C  C61  1  0.83709000  0.73338000  0.85387000  1
  C  C62  1  0.94992000  0.23859000  0.21272000  1
  C  C63  1  0.61175000  0.15172000  0.54170000  1
  C  C64  1  0.56332000  0.06384000  0.66508000  1
  C  C65  1  0.47386000  0.88723000  0.89327000  1
  C  C66  1  0.50315000  0.85979000  0.80649000  1
  C  C67  1  0.54527000  0.94794000  0.69298000  1
  C  C68  1  0.48493000  0.73777000  0.83157000  1
  C  C69  1  0.48665000  0.00374000  0.86613000  1
  C  C70  1  0.23484000  0.20466000  0.94843000  1
  C  C71  1  0.14343000  0.31871000  0.03692000  1
  C  C72  1  0.53503000  0.09237000  0.75145000  1
  C  C73  1  0.23588000  0.30961000  0.94881000  1
  C  C74  1  0.05248000  0.22179000  0.12803000  1
  C  C75  1  0.14464000  0.10689000  0.04144000  1
  C  C76  1  0.05523000  0.11427000  0.13321000  1
  C  C77  1  0.33536000  0.41076000  0.85662000  1
  C  C78  1  0.16118000  0.76169000  0.78735000  1
  C  C79  1  0.15045000  0.84829000  0.45784000  1
  C  C80  1  0.22593000  0.93570000  0.33481000  1
  C  C81  1  0.36755000  0.11079000  0.10721000  1
  C  C82  1  0.31070000  0.13917000  0.19329000  1
  C  C83  1  0.23777000  0.05175000  0.30652000  1
  C  C84  1  0.31966000  0.26143000  0.16785000  1
  C  C85  1  0.35157000  0.99411000  0.13481000  1
  C  C86  1  0.18179000  0.79335000  0.05368000  1
  C  C87  1  0.17941000  0.68032000  0.96387000  1
  C  C88  1  0.28373000  0.90615000  0.24934000  1
  C  C89  1  0.18334000  0.68861000  0.05283000  1
  C  C90  1  0.17942000  0.77780000  0.87256000  1
  C  C91  1  0.18478000  0.89167000  0.96035000  1
  C  C92  1  0.18711000  0.88500000  0.86796000  1
  C  C93  1  0.18947000  0.58675000  0.14595000  1
  N  N94  1  0.68746000  0.04539000  0.95194000  1
  N  N95  1  0.89589000  0.98949000  0.05212000  1
  N  N96  1  0.64009000  0.95310000  0.04868000  1
  N  N97  1  0.94740000  0.01021000  0.94869000  1
  N  N98  1  0.13883000  0.99675000  0.04950000  1
  N  N99  1  0.44787000  0.03992000  0.94896000  1
  N  N100  1  0.18714000  0.00173000  0.95245000  1
  N  N101  1  0.39578000  0.95740000  0.05235000  1
  O  O102  1  0.62509000  0.53022000  0.81295000  1
  O  O103  1  0.66704000  0.45432000  0.69827000  1
  O  O104  1  0.88855000  0.59523000  0.06425000  1
  O  O105  1  0.55965000  0.60680000  0.51888000  1
  O  O106  1  0.67253000  0.74684000  0.50397000  1
  O  O107  1  0.72465000  0.36914000  0.13108000  1
  O  O108  1  0.67139000  0.17813000  0.23735000  1
  O  O109  1  0.75715000  0.47013000  0.25002000  1
  O  O110  1  0.43857000  0.47223000  0.18120000  1
  O  O111  1  0.37054000  0.54214000  0.30136000  1
  O  O112  1  0.95224000  0.40456000  0.93738000  1
  O  O113  1  0.09463000  0.40342000  0.47806000  1
  O  O114  1  0.17394000  0.25076000  0.49755000  1
  O  O115  1  0.85693000  0.63142000  0.86814000  1
  O  O116  1  0.90501000  0.82208000  0.76006000  1
  O  O117  1  0.01018000  0.53010000  0.75029000  1
  O  O118  1  0.94060000  0.34338000  0.18838000  1
  O  O119  1  0.86832000  0.15288000  0.30304000  1
  O  O120  1  0.44998000  0.65810000  0.93553000  1
  O  O121  1  0.59228000  0.12166000  0.47808000  1
  O  O122  1  0.67549000  0.25189000  0.49823000  1
  O  O123  1  0.35143000  0.49988000  0.86975000  1
  O  O124  1  0.40658000  0.41423000  0.76428000  1
  O  O125  1  0.50336000  0.72065000  0.74901000  1
  O  O126  1  0.12779000  0.65708000  0.81150000  1
  O  O127  1  0.16920000  0.84749000  0.69684000  1
  O  O128  1  0.38655000  0.34073000  0.06350000  1
  O  O129  1  0.06890000  0.87945000  0.52095000  1
  O  O130  1  0.16918000  0.74711000  0.50156000  1
  O  O131  1  0.22213000  0.49874000  0.13183000  1
  O  O132  1  0.16468000  0.58135000  0.23999000  1
  O  O133  1  0.25893000  0.27920000  0.25057000  1
