# generated using pymatgen
data_ZnH16C20(NO2)2
_symmetry_space_group_name_H-M   'P 1'
_cell_length_a   9.83547000
_cell_length_b   11.31451000
_cell_length_c   22.46172000
_cell_angle_alpha   103.14432000
_cell_angle_beta   90.00408000
_cell_angle_gamma   115.72265000
_symmetry_Int_Tables_number   1
_chemical_formula_structural   ZnH16C20(NO2)2
_chemical_formula_sum   'Zn4 H64 C80 N8 O16'
_cell_volume   2178.97973901
_cell_formula_units_Z   4
loop_
 _symmetry_equiv_pos_site_id
 _symmetry_equiv_pos_as_xyz
  1  'x, y, z'
loop_
 _atom_site_type_symbol
 _atom_site_label
 _atom_site_symmetry_multiplicity
 _atom_site_fract_x
 _atom_site_fract_y
 _atom_site_fract_z
 _atom_site_occupancy
  Zn  Zn0  1  0.06751000  0.66059000  0.61811000  1
  Zn  Zn1  1  0.40728000  0.33946000  0.88188000  1
  Zn  Zn2  1  0.93248000  0.33942000  0.38189000  1
  Zn  Zn3  1  0.59272000  0.66054000  0.11812000  1
  H  H4  1  0.94132000  0.38634000  0.54215000  1
  H  H5  1  0.00090000  0.19053000  0.51299000  1
  H  H6  1  0.40269000  0.41890000  0.64375000  1
  H  H7  1  0.33137000  0.61005000  0.66540000  1
  H  H8  1  0.20476000  0.11420000  0.51377000  1
  H  H9  1  0.35973000  0.19629000  0.57207000  1
  H  H10  1  0.16073000  0.96736000  0.58312000  1
  H  H11  1  0.02628000  0.03183000  0.59371000  1
  H  H12  1  0.13536000  0.27838000  0.80403000  1
  H  H13  1  0.02403000  0.17253000  0.69393000  1
  H  H14  1  0.39965000  0.07390000  0.66246000  1
  H  H15  1  0.49417000  0.18238000  0.77394000  1
  H  H16  1  0.59766000  0.74019000  0.55979000  1
  H  H17  1  0.65247000  0.37589000  0.50660000  1
  H  H18  1  0.61436000  0.02279000  0.60333000  1
  H  H19  1  0.23600000  0.82529000  0.46293000  1
  H  H20  1  0.55539000  0.61351000  0.95801000  1
  H  H21  1  0.81038000  0.80925000  0.98706000  1
  H  H22  1  0.98360000  0.58124000  0.85576000  1
  H  H23  1  0.72160000  0.39011000  0.83428000  1
  H  H24  1  0.09022000  0.88553000  0.98617000  1
  H  H25  1  0.16328000  0.80353000  0.92788000  1
  H  H26  1  0.19274000  0.03266000  0.91688000  1
  H  H27  1  0.99385000  0.96776000  0.90613000  1
  H  H28  1  0.85723000  0.72081000  0.69596000  1
  H  H29  1  0.85151000  0.82693000  0.80604000  1
  H  H30  1  0.32556000  0.92568000  0.83768000  1
  H  H31  1  0.31196000  0.81708000  0.72623000  1
  H  H32  1  0.85801000  0.25991000  0.93995000  1
  H  H33  1  0.27628000  0.62449000  0.99348000  1
  H  H34  1  0.59200000  0.97671000  0.89674000  1
  H  H35  1  0.41158000  0.17559000  0.03690000  1
  H  H36  1  0.05867000  0.61367000  0.45785000  1
  H  H37  1  0.99909000  0.80947000  0.48700000  1
  H  H38  1  0.59730000  0.58110000  0.35624000  1
  H  H39  1  0.66862000  0.38995000  0.33460000  1
  H  H40  1  0.79523000  0.88580000  0.48623000  1
  H  H41  1  0.64027000  0.80372000  0.42793000  1
  H  H42  1  0.83926000  0.03264000  0.41687000  1
  H  H43  1  0.97371000  0.96818000  0.40629000  1
  H  H44  1  0.86463000  0.72163000  0.19597000  1
  H  H45  1  0.97597000  0.82747000  0.30607000  1
  H  H46  1  0.60034000  0.92610000  0.33753000  1
  H  H47  1  0.50582000  0.81762000  0.22606000  1
  H  H48  1  0.40233000  0.25981000  0.44021000  1
  H  H49  1  0.34752000  0.62411000  0.49339000  1
  H  H50  1  0.38563000  0.97721000  0.39666000  1
  H  H51  1  0.76400000  0.17471000  0.53707000  1
  H  H52  1  0.44460000  0.38649000  0.04199000  1
  H  H53  1  0.18961000  0.19075000  0.01293000  1
  H  H54  1  0.01639000  0.41876000  0.14424000  1
  H  H55  1  0.27839000  0.60990000  0.16572000  1
  H  H56  1  0.90978000  0.11447000  0.01382000  1
  H  H57  1  0.83672000  0.19647000  0.07211000  1
  H  H58  1  0.80726000  0.96735000  0.08312000  1
  H  H59  1  0.00614000  0.03224000  0.09386000  1
  H  H60  1  0.14276000  0.27919000  0.30403000  1
  H  H61  1  0.14848000  0.17307000  0.19396000  1
  H  H62  1  0.67442000  0.07432000  0.16232000  1
  H  H63  1  0.68803000  0.18292000  0.27377000  1
  H  H64  1  0.14199000  0.74010000  0.06005000  1
  H  H65  1  0.72371000  0.37551000  0.00652000  1
  H  H66  1  0.40799000  0.02329000  0.10326000  1
  H  H67  1  0.58841000  0.82441000  0.96309000  1
  C  C68  1  0.04096000  0.38864000  0.56444000  1
  C  C69  1  0.07450000  0.27905000  0.54900000  1
  C  C70  1  0.20486000  0.28548000  0.57772000  1
  C  C71  1  0.29803000  0.40655000  0.62094000  1
  C  C72  1  0.25860000  0.51322000  0.63378000  1
  C  C73  1  0.23760000  0.16453000  0.56307000  1
  C  C74  1  0.14809000  0.06048000  0.60061000  1
  C  C75  1  0.19121000  0.23449000  0.77052000  1
  C  C76  1  0.12992000  0.17431000  0.70939000  1
  C  C77  1  0.20444000  0.11687000  0.66796000  1
  C  C78  1  0.33855000  0.12034000  0.69167000  1
  C  C79  1  0.39334000  0.18133000  0.75336000  1
  C  C80  1  0.55435000  0.63535000  0.53328000  1
  C  C81  1  0.63991000  0.56464000  0.53698000  1
  C  C82  1  0.58434000  0.42887000  0.50355000  1
  C  C83  1  0.79202000  0.63632000  0.57472000  1
  C  C84  1  0.56581000  0.01414000  0.55807000  1
  C  C85  1  0.41631000  0.91574000  0.53725000  1
  C  C86  1  0.35152000  0.90212000  0.47887000  1
  C  C87  1  0.32528000  0.83084000  0.57862000  1
  C  C88  1  0.65258000  0.61120000  0.93560000  1
  C  C89  1  0.79556000  0.72078000  0.95101000  1
  C  C90  1  0.91938000  0.71441000  0.92218000  1
  C  C91  1  0.89149000  0.59349000  0.87880000  1
  C  C92  1  0.74553000  0.48682000  0.86601000  1
  C  C93  1  0.07290000  0.83533000  0.93687000  1
  C  C94  1  0.08727000  0.93938000  0.89934000  1
  C  C95  1  0.95690000  0.76491000  0.72949000  1
  C  C96  1  0.95565000  0.82523000  0.79059000  1
  C  C97  1  0.08752000  0.88287000  0.83202000  1
  C  C98  1  0.21818000  0.87928000  0.80841000  1
  C  C99  1  0.21215000  0.81820000  0.74674000  1
  C  C100  1  0.91946000  0.36469000  0.96655000  1
  C  C101  1  0.07564000  0.43567000  0.96294000  1
  C  C102  1  0.15526000  0.57138000  0.99651000  1
  C  C103  1  0.15689000  0.36451000  0.92531000  1
  C  C104  1  0.55195000  0.98557000  0.94196000  1
  C  C105  1  0.50125000  0.08437000  0.96273000  1
  C  C106  1  0.44991000  0.09839000  0.02106000  1
  C  C107  1  0.49519000  0.16913000  0.92128000  1
  C  C108  1  0.95904000  0.61137000  0.43556000  1
  C  C109  1  0.92550000  0.72095000  0.45099000  1
  C  C110  1  0.79514000  0.71452000  0.42228000  1
  C  C111  1  0.70196000  0.59346000  0.37905000  1
  C  C112  1  0.74140000  0.48678000  0.36622000  1
  C  C113  1  0.76240000  0.83548000  0.43693000  1
  C  C114  1  0.85190000  0.93952000  0.39939000  1
  C  C115  1  0.80878000  0.76551000  0.22947000  1
  C  C116  1  0.87008000  0.82569000  0.29061000  1
  C  C117  1  0.79556000  0.88313000  0.33203000  1
  C  C118  1  0.66144000  0.87967000  0.30833000  1
  C  C119  1  0.60665000  0.81867000  0.24664000  1
  C  C120  1  0.44565000  0.36465000  0.46672000  1
  C  C121  1  0.36009000  0.43537000  0.46302000  1
  C  C122  1  0.41566000  0.57114000  0.49645000  1
  C  C123  1  0.20798000  0.36369000  0.42527000  1
  C  C124  1  0.43418000  0.98587000  0.44192000  1
  C  C125  1  0.58369000  0.08427000  0.46275000  1
  C  C126  1  0.64847000  0.09788000  0.52113000  1
  C  C127  1  0.67471000  0.16916000  0.42138000  1
  C  C128  1  0.34741000  0.38880000  0.06440000  1
  C  C129  1  0.20444000  0.27922000  0.04899000  1
  C  C130  1  0.08061000  0.28559000  0.07781000  1
  C  C131  1  0.10850000  0.40651000  0.12119000  1
  C  C132  1  0.25446000  0.51318000  0.13398000  1
  C  C133  1  0.92709000  0.16467000  0.06313000  1
  C  C134  1  0.91272000  0.06062000  0.10066000  1
  C  C135  1  0.04310000  0.23509000  0.27051000  1
  C  C136  1  0.04435000  0.17478000  0.20940000  1
  C  C137  1  0.91248000  0.11712000  0.16797000  1
  C  C138  1  0.78181000  0.12072000  0.19158000  1
  C  C139  1  0.78784000  0.18180000  0.25326000  1
  C  C140  1  0.08054000  0.63532000  0.03345000  1
  C  C141  1  0.92435000  0.56433000  0.03706000  1
  C  C142  1  0.84474000  0.42862000  0.00348000  1
  C  C143  1  0.84310000  0.63549000  0.07469000  1
  C  C144  1  0.44804000  0.01443000  0.05803000  1
  C  C145  1  0.49875000  0.91563000  0.03727000  1
  C  C146  1  0.55009000  0.90162000  0.97893000  1
  C  C147  1  0.50482000  0.83087000  0.07871000  1
  N  N148  1  0.13057000  0.50451000  0.60683000  1
  N  N149  1  0.32234000  0.23976000  0.79241000  1
  N  N150  1  0.62633000  0.49542000  0.89311000  1
  N  N151  1  0.08284000  0.75977000  0.70765000  1
  N  N152  1  0.86943000  0.49549000  0.39317000  1
  N  N153  1  0.67766000  0.76024000  0.20758000  1
  N  N154  1  0.37367000  0.50459000  0.10689000  1
  N  N155  1  0.91716000  0.24023000  0.29235000  1
  O  O156  1  0.85286000  0.55806000  0.58324000  1
  O  O157  1  0.85322000  0.76228000  0.59545000  1
  O  O158  1  0.18073000  0.76223000  0.55965000  1
  O  O159  1  0.38686000  0.83270000  0.62782000  1
  O  O160  1  0.29564000  0.44325000  0.91673000  1
  O  O161  1  0.09309000  0.23845000  0.90474000  1
  O  O162  1  0.42018000  0.23858000  0.94043000  1
  O  O163  1  0.55386000  0.16644000  0.87188000  1
  O  O164  1  0.14714000  0.44195000  0.41676000  1
  O  O165  1  0.14677000  0.23771000  0.40455000  1
  O  O166  1  0.81926000  0.23777000  0.44034000  1
  O  O167  1  0.61313000  0.16729000  0.37217000  1
  O  O168  1  0.70435000  0.55675000  0.08327000  1
  O  O169  1  0.90692000  0.76156000  0.09526000  1
  O  O170  1  0.57981000  0.76143000  0.05956000  1
  O  O171  1  0.44612000  0.83356000  0.12812000  1
