# generated using pymatgen
data_LaH9C21(SO2)3
_symmetry_space_group_name_H-M   'P 1'
_cell_length_a   7.96389000
_cell_length_b   14.28929000
_cell_length_c   14.28939000
_cell_angle_alpha   69.65465000
_cell_angle_beta   88.40944000
_cell_angle_gamma   88.40943000
_symmetry_Int_Tables_number   1
_chemical_formula_structural   LaH9C21(SO2)3
_chemical_formula_sum   'La2 H18 C42 S6 O12'
_cell_volume   1523.79053139
_cell_formula_units_Z   2
loop_
 _symmetry_equiv_pos_site_id
 _symmetry_equiv_pos_as_xyz
  1  'x, y, z'
loop_
 _atom_site_type_symbol
 _atom_site_label
 _atom_site_symmetry_multiplicity
 _atom_site_fract_x
 _atom_site_fract_y
 _atom_site_fract_z
 _atom_site_occupancy
  La  La1  1  0.99787000  0.25530000  0.22327000  1.0
  La  La2  1  0.49787000  0.22327000  0.25530000  1.0
  H  H1  1  0.49664000  0.42785000  0.60855000  1.0
  H  H2  1  0.57028000  0.72424000  0.39873000  1.0
  H  H3  1  0.73128000  0.64748000  0.70149000  1.0
  H  H4  1  0.53224000  0.24625000  0.95738000  1.0
  H  H5  1  0.46069000  0.33985000  0.76831000  1.0
  H  H6  1  0.20926000  0.60428000  0.20831000  1.0
  H  H7  1  0.36454000  0.69592000  0.31194000  1.0
  H  H8  1  0.96103000  0.96908000  0.56959000  1.0
  H  H9  1  0.87838000  0.77993000  0.65432000  1.0
  H  H10  1  0.99664000  0.60855000  0.42785000  1.0
  H  H11  1  0.07028000  0.39873000  0.72423000  1.0
  H  H12  1  0.23128000  0.70150000  0.64748000  1.0
  H  H13  1  0.03225000  0.95738000  0.24625000  1.0
  H  H14  1  0.96069000  0.76831000  0.33985000  1.0
  H  H15  1  0.70926000  0.20831000  0.60428000  1.0
  H  H16  1  0.86453000  0.31194000  0.69592000  1.0
  H  H17  1  0.46102000  0.56959000  0.96908000  1.0
  H  H18  1  0.37838000  0.65432000  0.77992000  1.0
  C  C1  1  0.61897000  0.52867000  0.66654000  1.0
  C  C2  1  0.54138000  0.50321000  0.59172000  1.0
  C  C3  1  0.51977000  0.57353000  0.49560000  1.0
  C  C4  1  0.58077000  0.67039000  0.47403000  1.0
  C  C5  1  0.65813000  0.69798000  0.54734000  1.0
  C  C6  1  0.67507000  0.62635000  0.64347000  1.0
  C  C7  1  0.63522000  0.45546000  0.76733000  1.0
  C  C8  1  0.70271000  0.36547000  0.94603000  1.0
  C  C9  1  0.58766000  0.31582000  0.91022000  1.0
  C  C10  1  0.55042000  0.36609000  0.80898000  1.0
  C  C11  1  0.77201000  0.33439000  0.04594000  1.0
  C  C12  1  0.43311000  0.54888000  0.41845000  1.0
  C  C13  1  0.28505000  0.46413000  0.32019000  1.0
  C  C14  1  0.27632000  0.56741000  0.27701000  1.0
  C  C15  1  0.36146000  0.61538000  0.33201000  1.0
  C  C16  1  0.20567000  0.39278000  0.28400000  1.0
  C  C17  1  0.72289000  0.79801000  0.52546000  1.0
  C  C18  1  0.80228000  0.97598000  0.44690000  1.0
  C  C19  1  0.87564000  0.92985000  0.53889000  1.0
  C  C20  1  0.83006000  0.82942000  0.58362000  1.0
  C  C21  1  0.83720000  0.07626000  0.37778000  1.0
  C  C22  1  0.11897000  0.66655000  0.52867000  1.0
  C  C23  1  0.04138000  0.59172000  0.50321000  1.0
  C  C24  1  0.01977000  0.49560000  0.57352000  1.0
  C  C25  1  0.08077000  0.47403000  0.67039000  1.0
  C  C26  1  0.15813000  0.54734000  0.69798000  1.0
  C  C27  1  0.17507000  0.64347000  0.62635000  1.0
  C  C28  1  0.13522000  0.76733000  0.45545000  1.0
  C  C29  1  0.20271000  0.94604000  0.36547000  1.0
  C  C30  1  0.08766000  0.91022000  0.31582000  1.0
  C  C31  1  0.05042000  0.80898000  0.36609000  1.0
  C  C32  1  0.27201000  0.04595000  0.33439000  1.0
  C  C33  1  0.93311000  0.41845000  0.54888000  1.0
  C  C34  1  0.78505000  0.32019000  0.46412000  1.0
  C  C35  1  0.77632000  0.27701000  0.56741000  1.0
  C  C36  1  0.86146000  0.33201000  0.61538000  1.0
  C  C37  1  0.70567000  0.28400000  0.39278000  1.0
  C  C38  1  0.22288000  0.52546000  0.79801000  1.0
  C  C39  1  0.30227000  0.44690000  0.97598000  1.0
  C  C40  1  0.37563000  0.53890000  0.92984000  1.0
  C  C41  1  0.33006000  0.58363000  0.82942000  1.0
  C  C42  1  0.33720000  0.37778000  0.07626000  1.0
  S  S1  1  0.76536000  0.47516000  0.85413000  1.0
  S  S2  1  0.39700000  0.42660000  0.42935000  1.0
  S  S3  1  0.67468000  0.89517000  0.41637000  1.0
  S  S4  1  0.26536000  0.85413000  0.47516000  1.0
  S  S5  1  0.89700000  0.42935000  0.42660000  1.0
  S  S6  1  0.17467000  0.41637000  0.89516000  1.0
  O  O1  1  0.71698000  0.25333000  0.11399000  1.0
  O  O2  1  0.89016000  0.38322000  0.06410000  1.0
  O  O3  1  0.09041000  0.42246000  0.22039000  1.0
  O  O4  1  0.25004000  0.29829000  0.31960000  1.0
  O  O5  1  0.94983000  0.12689000  0.39841000  1.0
  O  O6  1  0.75903000  0.11056000  0.29306000  1.0
  O  O7  1  0.21698000  0.11399000  0.25333000  1.0
  O  O8  1  0.39016000  0.06411000  0.38322000  1.0
  O  O9  1  0.59041000  0.22039000  0.42246000  1.0
  O  O10  1  0.75004000  0.31960000  0.29829000  1.0
  O  O11  1  0.44983000  0.39841000  0.12689000  1.0
  O  O12  1  0.25903000  0.29306000  0.11055000  1.0
