# generated using pymatgen
data_MnH10(C3O)6
_symmetry_space_group_name_H-M   'P 1'
_cell_length_a   9.42855000
_cell_length_b   10.07236652
_cell_length_c   33.83734000
_cell_angle_alpha   91.43391542
_cell_angle_beta   91.05320000
_cell_angle_gamma   117.05524825
_symmetry_Int_Tables_number   1
_chemical_formula_structural   MnH10(C3O)6
_chemical_formula_sum   'Mn6 H60 C108 O36'
_cell_volume   2859.30878168
_cell_formula_units_Z   6
loop_
 _symmetry_equiv_pos_site_id
 _symmetry_equiv_pos_as_xyz
  1  'x, y, z'
loop_
 _atom_site_type_symbol
 _atom_site_label
 _atom_site_symmetry_multiplicity
 _atom_site_fract_x
 _atom_site_fract_y
 _atom_site_fract_z
 _atom_site_occupancy
  Mn  Mn0  1  0.83734000  0.97383000  0.02877000  1
  Mn  Mn1  1  0.86115000  0.02622000  0.47655000  1
  Mn  Mn2  1  0.16212000  0.02534000  0.97123000  1
  Mn  Mn3  1  0.13215000  0.98092000  0.52868000  1
  Mn  Mn4  1  0.50042000  0.99949000  0.99988000  1
  Mn  Mn5  1  0.49279000  0.99903000  0.50077000  1
  H  H6  1  0.67741000  0.44322000  0.04576000  1
  H  H7  1  0.70769000  0.63474000  0.09761000  1
  H  H8  1  0.92194000  0.44471000  0.17750000  1
  H  H9  1  0.90678000  0.26424000  0.12374000  1
  H  H10  1  0.98678000  0.02583000  0.39319000  1
  H  H11  1  0.97689000  0.96034000  0.32105000  1
  H  H12  1  0.30661000  0.78090000  0.34246000  1
  H  H13  1  0.31310000  0.84156000  0.41470000  1
  H  H14  1  0.91023000  0.21961000  0.36081000  1
  H  H15  1  0.87630000  0.33582000  0.29997000  1
  H  H16  1  0.43539000  0.30603000  0.34247000  1
  H  H17  1  0.47300000  0.19419000  0.40424000  1
  H  H18  1  0.07791000  0.83981000  0.21342000  1
  H  H19  1  0.89727000  0.60627000  0.32084000  1
  H  H20  1  0.62631000  0.43867000  0.21094000  1
  H  H21  1  0.25408000  0.55464000  0.45480000  1
  H  H22  1  0.09088000  0.36693000  0.40186000  1
  H  H23  1  0.48184000  0.56131000  0.32285000  1
  H  H24  1  0.64776000  0.73922000  0.37754000  1
  H  H25  1  0.96676000  0.96919000  0.10743000  1
  H  H26  1  0.02585000  0.04303000  0.17910000  1
  H  H27  1  0.52856000  0.22394000  0.15977000  1
  H  H28  1  0.47019000  0.15815000  0.08741000  1
  H  H29  1  0.66750000  0.77832000  0.13724000  1
  H  H30  1  0.53267000  0.66916000  0.19915000  1
  H  H31  1  0.11387000  0.69554000  0.15633000  1
  H  H32  1  0.24646000  0.79753000  0.09344000  1
  H  H33  1  0.24635000  0.16277000  0.28696000  1
  H  H34  1  0.29142000  0.39915000  0.17947000  1
  H  H35  1  0.19224000  0.56747000  0.28863000  1
  H  H36  1  0.32190000  0.55637000  0.95401000  1
  H  H37  1  0.28790000  0.36244000  0.90244000  1
  H  H38  1  0.07482000  0.55284000  0.82251000  1
  H  H39  1  0.09288000  0.73591000  0.87597000  1
  H  H40  1  0.99550000  0.96577000  0.60365000  1
  H  H41  1  0.01637000  0.03127000  0.67530000  1
  H  H42  1  0.69864000  0.22689000  0.65865000  1
  H  H43  1  0.68203000  0.16928000  0.58636000  1
  H  H44  1  0.09334000  0.77601000  0.64245000  1
  H  H45  1  0.13269000  0.65964000  0.70281000  1
  H  H46  1  0.57306000  0.69624000  0.65808000  1
  H  H47  1  0.53051000  0.80866000  0.59705000  1
  H  H48  1  0.91929000  0.15805000  0.78587000  1
  H  H49  1  0.11357000  0.38810000  0.67881000  1
  H  H50  1  0.37273000  0.55683000  0.79030000  1
  H  H51  1  0.74722000  0.44803000  0.54549000  1
  H  H52  1  0.91292000  0.63412000  0.59859000  1
  H  H53  1  0.52228000  0.44174000  0.67774000  1
  H  H54  1  0.35383000  0.26669000  0.62303000  1
  H  H55  1  0.03280000  0.03123000  0.89297000  1
  H  H56  1  0.97415000  0.95734000  0.82128000  1
  H  H57  1  0.47112000  0.77612000  0.84049000  1
  H  H58  1  0.52915000  0.84181000  0.91289000  1
  H  H59  1  0.33200000  0.22155000  0.86274000  1
  H  H60  1  0.46737000  0.33145000  0.80095000  1
  H  H61  1  0.88494000  0.30234000  0.84352000  1
  H  H62  1  0.75237000  0.20088000  0.90645000  1
  H  H63  1  0.75797000  0.83998000  0.71366000  1
  H  H64  1  0.70711000  0.60003000  0.82070000  1
  H  H65  1  0.81198000  0.43517000  0.71171000  1
  C  C66  1  0.77049000  0.22382000  0.05156000  1
  C  C67  1  0.78988000  0.34105000  0.08148000  1
  C  C68  1  0.73265000  0.44526000  0.07443000  1
  C  C69  1  0.74736000  0.55114000  0.10358000  1
  C  C70  1  0.81388000  0.54905000  0.14078000  1
  C  C71  1  0.86905000  0.44438000  0.14865000  1
  C  C72  1  0.86022000  0.34346000  0.11865000  1
  C  C73  1  0.15360000  0.96950000  0.45106000  1
  C  C74  1  0.15012000  0.93681000  0.40864000  1
  C  C75  1  0.05529000  0.97115000  0.38210000  1
  C  C76  1  0.04944000  0.93495000  0.34196000  1
  C  C77  1  0.14012000  0.86619000  0.32819000  1
  C  C78  1  0.23670000  0.83358000  0.35391000  1
  C  C79  1  0.24066000  0.86811000  0.39414000  1
  C  C80  1  0.71242000  0.14032000  0.42473000  1
  C  C81  1  0.69565000  0.20354000  0.38705000  1
  C  C82  1  0.80801000  0.24127000  0.35732000  1
  C  C83  1  0.78907000  0.30575000  0.32295000  1
  C  C84  1  0.65587000  0.33167000  0.31851000  1
  C  C85  1  0.53932000  0.28828000  0.34704000  1
  C  C86  1  0.56010000  0.22549000  0.38126000  1
  C  C87  1  0.84970000  0.64208000  0.20816000  1
  C  C88  1  0.98482000  0.74911000  0.22857000  1
  C  C89  1  0.00033000  0.73401000  0.26916000  1
  C  C90  1  0.88405000  0.61653000  0.28929000  1
  C  C91  1  0.75119000  0.51074000  0.26754000  1
  C  C92  1  0.73128000  0.52189000  0.22697000  1
  C  C93  1  0.55691000  0.77148000  0.45061000  1
  C  C94  1  0.46095000  0.65800000  0.41934000  1
  C  C95  1  0.30330000  0.55356000  0.42604000  1
  C  C96  1  0.21161000  0.45028000  0.39641000  1
  C  C97  1  0.27626000  0.45458000  0.35925000  1
  C  C98  1  0.43247000  0.55966000  0.35171000  1
  C  C99  1  0.52480000  0.65895000  0.38217000  1
  C  C100  1  0.18439000  0.02782000  0.04994000  1
  C  C101  1  0.21599000  0.06130000  0.09277000  1
  C  C102  1  0.08962000  0.02677000  0.11863000  1
  C  C103  1  0.12147000  0.06658000  0.15869000  1
  C  C104  1  0.27983000  0.13726000  0.17301000  1
  C  C105  1  0.40654000  0.16943000  0.14793000  1
  C  C106  1  0.37401000  0.13252000  0.10772000  1
  C  C107  1  0.54371000  0.84893000  0.07328000  1
  C  C108  1  0.46449000  0.79125000  0.11072000  1
  C  C109  1  0.54506000  0.75697000  0.14106000  1
  C  C110  1  0.47030000  0.69681000  0.17595000  1
  C  C111  1  0.31297000  0.67152000  0.18052000  1
  C  C112  1  0.23383000  0.71199000  0.15156000  1
  C  C113  1  0.30874000  0.76998000  0.11662000  1
  C  C114  1  0.21513000  0.36319000  0.29175000  1
  C  C115  1  0.24297000  0.25506000  0.27180000  1
  C  C116  1  0.27156000  0.27100000  0.23139000  1
  C  C117  1  0.26944000  0.38889000  0.21090000  1
  C  C118  1  0.24109000  0.49508000  0.23218000  1
  C  C119  1  0.21359000  0.48379000  0.27267000  1
  C  C120  1  0.22936000  0.77558000  0.94832000  1
  C  C121  1  0.20952000  0.65856000  0.91829000  1
  C  C122  1  0.26615000  0.55397000  0.92541000  1
  C  C123  1  0.24972000  0.44702000  0.89643000  1
  C  C124  1  0.18244000  0.44868000  0.85934000  1
  C  C125  1  0.12863000  0.55425000  0.85130000  1
  C  C126  1  0.13891000  0.65627000  0.88115000  1
  C  C127  1  0.82741000  0.03356000  0.54781000  1
  C  C128  1  0.83837000  0.06514000  0.58956000  1
  C  C129  1  0.93232000  0.02498000  0.61518000  1
  C  C130  1  0.94409000  0.06073000  0.65541000  1
  C  C131  1  0.86039000  0.13412000  0.67071000  1
  C  C132  1  0.76430000  0.17176000  0.64612000  1
  C  C133  1  0.75444000  0.13868000  0.60577000  1
  C  C134  1  0.27902000  0.85266000  0.57772000  1
  C  C135  1  0.30673000  0.79453000  0.61521000  1
  C  C136  1  0.19663000  0.75578000  0.64552000  1
  C  C137  1  0.21871000  0.69156000  0.67953000  1
  C  C138  1  0.35267000  0.66653000  0.68313000  1
  C  C139  1  0.46805000  0.71268000  0.65427000  1
  C  C140  1  0.44437000  0.77573000  0.62033000  1
  C  C141  1  0.14805000  0.35409000  0.79216000  1
  C  C142  1  0.01461000  0.24806000  0.77109000  1
  C  C143  1  0.00360000  0.26252000  0.73026000  1
  C  C144  1  0.12364000  0.37840000  0.71052000  1
  C  C145  1  0.25454000  0.48405000  0.73300000  1
  C  C146  1  0.26936000  0.47352000  0.77379000  1
  C  C147  1  0.44131000  0.23571000  0.54964000  1
  C  C148  1  0.54021000  0.34691000  0.58095000  1
  C  C149  1  0.69866000  0.44944000  0.57433000  1
  C  C150  1  0.79180000  0.55147000  0.60406000  1
  C  C151  1  0.72735000  0.54760000  0.64122000  1
  C  C152  1  0.57100000  0.44315000  0.64882000  1
  C  C153  1  0.47719000  0.34556000  0.61828000  1
  C  C154  1  0.81550000  0.97280000  0.95018000  1
  C  C155  1  0.78362000  0.93901000  0.90746000  1
  C  C156  1  0.91012000  0.97351000  0.88167000  1
  C  C157  1  0.87839000  0.93347000  0.84166000  1
  C  C158  1  0.71995000  0.86263000  0.82738000  1
  C  C159  1  0.59304000  0.83056000  0.85241000  1
  C  C160  1  0.62545000  0.86758000  0.89260000  1
  C  C161  1  0.45592000  0.15000000  0.92665000  1
  C  C162  1  0.53475000  0.20781000  0.88921000  1
  C  C163  1  0.45439000  0.24264000  0.85892000  1
  C  C164  1  0.52946000  0.30323000  0.82409000  1
  C  C165  1  0.68668000  0.32811000  0.81949000  1
  C  C166  1  0.76534000  0.28673000  0.84837000  1
  C  C167  1  0.69033000  0.22871000  0.88328000  1
  C  C168  1  0.78888000  0.63949000  0.70869000  1
  C  C169  1  0.76068000  0.74726000  0.72874000  1
  C  C170  1  0.73007000  0.72992000  0.76903000  1
  C  C171  1  0.73088000  0.61120000  0.78937000  1
  C  C172  1  0.76022000  0.50572000  0.76805000  1
  C  C173  1  0.78989000  0.51845000  0.72766000  1
  O  O174  1  0.65470000  0.18332000  0.02592000  1
  O  O175  1  0.86818000  0.16776000  0.05366000  1
  O  O176  1  0.07201000  0.03343000  0.46582000  1
  O  O177  1  0.23425000  0.93412000  0.47625000  1
  O  O178  1  0.84921000  0.14254000  0.43321000  1
  O  O179  1  0.59396000  0.08759000  0.44672000  1
  O  O180  1  0.83272000  0.66240000  0.16802000  1
  O  O181  1  0.14212000  0.83626000  0.28777000  1
  O  O182  1  0.62672000  0.39391000  0.28516000  1
  O  O183  1  0.48401000  0.79861000  0.47852000  1
  O  O184  1  0.70880000  0.83744000  0.44648000  1
  O  O185  1  0.04014000  0.95012000  0.03598000  1
  O  O186  1  0.29861000  0.07823000  0.02566000  1
  O  O187  1  0.67568000  0.84388000  0.06719000  1
  O  O188  1  0.47605000  0.90104000  0.04925000  1
  O  O189  1  0.18012000  0.34360000  0.33171000  1
  O  O190  1  0.31307000  0.16880000  0.21343000  1
  O  O191  1  0.23003000  0.61269000  0.21457000  1
  O  O192  1  0.34500000  0.81574000  0.97400000  1
  O  O193  1  0.13164000  0.83161000  0.94638000  1
  O  O194  1  0.89934000  0.96208000  0.52975000  1
  O  O195  1  0.75493000  0.07824000  0.52172000  1
  O  O196  1  0.14025000  0.84601000  0.57116000  1
  O  O197  1  0.39215000  0.90567000  0.55367000  1
  O  O198  1  0.16058333  0.33333333  0.83252000  1
  O  O199  1  0.86234000  0.16112000  0.71146000  1
  O  O200  1  0.38131000  0.60123000  0.71603000  1
  O  O201  1  0.51013000  0.20328000  0.52167000  1
  O  O202  1  0.28922000  0.17594000  0.55352000  1
  O  O203  1  0.95971000  0.05027000  0.96419000  1
  O  O204  1  0.70116000  0.92233000  0.97445000  1
  O  O205  1  0.32399000  0.15493000  0.93287000  1
  O  O206  1  0.52418000  0.09821000  0.95063000  1
  O  O207  1  0.82319000  0.65925000  0.66867000  1
  O  O208  1  0.68680000  0.83091000  0.78706000  1
  O  O209  1  0.76991000  0.38712000  0.78551000  1
