# generated using pymatgen
data_ZnH8C6N8O
_symmetry_space_group_name_H-M   'P 1'
_cell_length_a   13.25126000
_cell_length_b   15.16863441
_cell_length_c   15.20282000
_cell_angle_alpha   111.82971078
_cell_angle_beta   106.91530000
_cell_angle_gamma   106.87065182
_symmetry_Int_Tables_number   1
_chemical_formula_structural   ZnH8C6N8O
_chemical_formula_sum   'Zn6 H48 C36 N48 O6'
_cell_volume   2425.58082234
_cell_formula_units_Z   6
loop_
 _symmetry_equiv_pos_site_id
 _symmetry_equiv_pos_as_xyz
  1  'x, y, z'
loop_
 _atom_site_type_symbol
 _atom_site_label
 _atom_site_symmetry_multiplicity
 _atom_site_fract_x
 _atom_site_fract_y
 _atom_site_fract_z
 _atom_site_occupancy
  Zn  Zn1  1  0.96788000  0.19489000  0.71503000  1.0
  Zn  Zn2  1  0.77313000  0.52039000  0.80585000  1.0
  Zn  Zn3  1  0.25373000  0.28522000  0.47952000  1.0
  Zn  Zn4  1  0.03212000  0.80511000  0.28497000  1.0
  Zn  Zn5  1  0.22687000  0.47961000  0.19415000  1.0
  Zn  Zn6  1  0.74628000  0.71478000  0.52048000  1.0
  H  H1  1  0.26778000  0.28173000  0.76232000  1.0
  H  H2  1  0.30538000  0.24545000  0.65578000  1.0
  H  H3  1  0.15216000  0.05366000  0.57322000  1.0
  H  H4  1  0.27283000  0.10396000  0.69731000  1.0
  H  H5  1  0.16200000  0.99083000  0.74707000  1.0
  H  H6  1  0.05352000  0.92889000  0.61381000  1.0
  H  H7  1  0.96908000  0.89348000  0.73215000  1.0
  H  H8  1  0.01924000  0.03228000  0.81205000  1.0
  H  H9  1  0.98621000  0.48116000  0.71855000  1.0
  H  H10  1  0.05994000  0.41049000  0.75499000  1.0
  H  H11  1  0.09814000  0.51884000  0.94602000  1.0
  H  H12  1  0.16837000  0.59308000  0.89555000  1.0
  H  H13  1  0.17080000  0.75590000  0.00869000  1.0
  H  H14  1  0.12423000  0.68428000  0.07074000  1.0
  H  H15  1  0.07528000  0.83842000  0.10606000  1.0
  H  H16  1  0.98709000  0.78033000  0.96775000  1.0
  H  H17  1  0.50546000  0.23758000  0.51957000  1.0
  H  H18  1  0.64945000  0.34427000  0.58941000  1.0
  H  H19  1  0.57887000  0.42718000  0.48055000  1.0
  H  H20  1  0.57560000  0.30273000  0.40729000  1.0
  H  H21  1  0.41528000  0.25275000  0.24460000  1.0
  H  H22  1  0.43956000  0.38624000  0.31506000  1.0
  H  H23  1  0.23725000  0.26808000  0.16215000  1.0
  H  H24  1  0.20736000  0.18732000  0.22023000  1.0
  H  H25  1  0.73222000  0.71827000  0.23768000  1.0
  H  H26  1  0.69462000  0.75454000  0.34421000  1.0
  H  H27  1  0.84784000  0.94633000  0.42677000  1.0
  H  H28  1  0.72717000  0.89604000  0.30269000  1.0
  H  H29  1  0.83800000  0.00917000  0.25293000  1.0
  H  H30  1  0.94648000  0.07111000  0.38619000  1.0
  H  H31  1  0.03092000  0.10652000  0.26785000  1.0
  H  H32  1  0.98076000  0.96772000  0.18795000  1.0
  H  H33  1  0.01380000  0.51884000  0.28144000  1.0
  H  H34  1  0.94006000  0.58951000  0.24501000  1.0
  H  H35  1  0.90186000  0.48116000  0.05398000  1.0
  H  H36  1  0.83163000  0.40692000  0.10445000  1.0
  H  H37  1  0.82920000  0.24410000  0.99131000  1.0
  H  H38  1  0.87577000  0.31572000  0.92926000  1.0
  H  H39  1  0.92473000  0.16158000  0.89394000  1.0
  H  H40  1  0.01292000  0.21967000  0.03225000  1.0
  H  H41  1  0.49454000  0.76242000  0.48043000  1.0
  H  H42  1  0.35054000  0.65572000  0.41058000  1.0
  H  H43  1  0.42113000  0.57282000  0.51945000  1.0
  H  H44  1  0.42440000  0.69727000  0.59271000  1.0
  H  H45  1  0.58473000  0.74725000  0.75539000  1.0
  H  H46  1  0.56044000  0.61376000  0.68494000  1.0
  H  H47  1  0.76274000  0.73191000  0.83784000  1.0
  H  H48  1  0.79263000  0.81267000  0.77976000  1.0
  C  C1  1  0.13610000  0.24090000  0.61512000  1.0
  C  C2  1  0.23314000  0.22582000  0.67739000  1.0
  C  C3  1  0.19490000  0.11268000  0.65845000  1.0
  C  C4  1  0.08396000  0.99101000  0.69544000  1.0
  C  C5  1  0.98702000  0.96833000  0.73085000  1.0
  C  C6  1  0.87569000  0.95965000  0.65943000  1.0
  C  C7  1  0.89518000  0.37453000  0.75943000  1.0
  C  C8  1  0.00716000  0.45173000  0.77434000  1.0
  C  C9  1  0.08199000  0.54554000  0.88722000  1.0
  C  C10  1  0.09271000  0.70419000  0.00877000  1.0
  C  C11  1  0.01849000  0.76249000  0.03142000  1.0
  C  C12  1  0.91596000  0.69983000  0.04035000  1.0
  C  C13  1  0.52097000  0.38503000  0.62570000  1.0
  C  C14  1  0.55564000  0.32270000  0.54848000  1.0
  C  C15  1  0.53648000  0.34180000  0.45454000  1.0
  C  C16  1  0.38863000  0.30451000  0.29591000  1.0
  C  C17  1  0.25628000  0.26888000  0.23787000  1.0
  C  C18  1  0.21623000  0.34038000  0.30026000  1.0
  C  C19  1  0.86391000  0.75910000  0.38487000  1.0
  C  C20  1  0.76687000  0.77418000  0.32261000  1.0
  C  C21  1  0.80510000  0.88732000  0.34155000  1.0
  C  C22  1  0.91604000  0.00899000  0.30456000  1.0
  C  C23  1  0.01297000  0.03166000  0.26914000  1.0
  C  C24  1  0.12431000  0.04035000  0.34057000  1.0
  C  C25  1  0.10482000  0.62547000  0.24056000  1.0
  C  C26  1  0.99283000  0.54826000  0.22565000  1.0
  C  C27  1  0.91802000  0.45446000  0.11277000  1.0
  C  C28  1  0.90728000  0.29580000  0.99122000  1.0
  C  C29  1  0.98151000  0.23751000  0.96858000  1.0
  C  C30  1  0.08404000  0.30017000  0.95964000  1.0
  C  C31  1  0.47903000  0.61497000  0.37430000  1.0
  C  C32  1  0.44437000  0.67730000  0.45152000  1.0
  C  C33  1  0.46353000  0.65820000  0.54546000  1.0
  C  C34  1  0.61137000  0.69548000  0.70408000  1.0
  C  C35  1  0.74373000  0.73112000  0.76213000  1.0
  C  C36  1  0.78377000  0.65961000  0.69973000  1.0
  N  N1  1  0.03448000  0.22823000  0.62232000  1.0
  N  N2  1  0.96978000  0.24734000  0.54942000  1.0
  N  N3  1  0.02985000  0.27084000  0.50019000  1.0
  N  N4  1  0.13460000  0.26775000  0.54007000  1.0
  N  N5  1  0.85862000  0.04062000  0.65262000  1.0
  N  N6  1  0.74669000  0.99784000  0.57471000  1.0
  N  N7  1  0.69785000  0.89535000  0.53660000  1.0
  N  N8  1  0.77660000  0.86901000  0.58867000  1.0
  N  N9  1  0.80617000  0.39429000  0.77220000  1.0
  N  N10  1  0.72237000  0.30209000  0.75279000  1.0
  N  N11  1  0.75897000  0.22931000  0.72914000  1.0
  N  N12  1  0.86676000  0.27247000  0.73240000  1.0
  N  N13  1  0.81800000  0.61233000  0.95977000  1.0
  N  N14  1  0.74901000  0.57738000  0.00286000  1.0
  N  N15  1  0.80277000  0.64152000  0.10513000  1.0
  N  N16  1  0.90773000  0.71964000  0.13104000  1.0
  N  N17  1  0.41218000  0.37784000  0.60579000  1.0
  N  N18  1  0.42007000  0.45038000  0.69764000  1.0
  N  N19  1  0.52925000  0.49954000  0.77031000  1.0
  N  N20  1  0.59429000  0.45995000  0.72743000  1.0
  N  N21  1  0.20598000  0.34739000  0.38787000  1.0
  N  N22  1  0.17200000  0.42555000  0.42274000  1.0
  N  N23  1  0.16139000  0.46368000  0.35838000  1.0
  N  N24  1  0.18800000  0.41132000  0.28020000  1.0
  N  N25  1  0.96552000  0.77176000  0.37767000  1.0
  N  N26  1  0.03021000  0.75265000  0.45057000  1.0
  N  N27  1  0.97015000  0.72916000  0.49981000  1.0
  N  N28  1  0.86540000  0.73224000  0.45992000  1.0
  N  N29  1  0.14139000  0.95938000  0.34738000  1.0
  N  N30  1  0.25331000  0.00216000  0.42529000  1.0
  N  N31  1  0.30214000  0.10464000  0.46339000  1.0
  N  N32  1  0.22341000  0.13099000  0.41133000  1.0
  N  N33  1  0.19382000  0.60570000  0.22779000  1.0
  N  N34  1  0.27762000  0.69790000  0.24720000  1.0
  N  N35  1  0.24102000  0.77068000  0.27085000  1.0
  N  N36  1  0.13324000  0.72752000  0.26759000  1.0
  N  N37  1  0.18200000  0.38767000  0.04023000  1.0
  N  N38  1  0.25100000  0.42262000  0.99714000  1.0
  N  N39  1  0.19724000  0.35848000  0.89487000  1.0
  N  N40  1  0.09226000  0.28035000  0.86895000  1.0
  N  N41  1  0.58783000  0.62216000  0.39421000  1.0
  N  N42  1  0.57994000  0.54962000  0.30236000  1.0
  N  N43  1  0.47074000  0.50045000  0.22968000  1.0
  N  N44  1  0.40572000  0.54005000  0.27257000  1.0
  N  N45  1  0.79401000  0.65260000  0.61212000  1.0
  N  N46  1  0.82800000  0.57445000  0.57726000  1.0
  N  N47  1  0.83860000  0.53631000  0.64161000  1.0
  N  N48  1  0.81200000  0.58867000  0.71979000  1.0
  O  O1  1  0.11423000  0.09263000  0.70260000  1.0
  O  O2  1  0.02158000  0.60998000  0.90748000  1.0
  O  O3  1  0.41180000  0.29750000  0.39025000  1.0
  O  O4  1  0.88577000  0.90737000  0.29740000  1.0
  O  O5  1  0.97843000  0.39002000  0.09252000  1.0
  O  O6  1  0.58819000  0.70249000  0.60974000  1.0
