# generated using pymatgen
data_Tb2Cu3H30C24(NO4)6
_symmetry_space_group_name_H-M   'P 1'
_cell_length_a   13.39220555
_cell_length_b   13.40847000
_cell_length_c   14.45616000
_cell_angle_alpha   90.02985000
_cell_angle_beta   90.06029510
_cell_angle_gamma   60.08802341
_symmetry_Int_Tables_number   1
_chemical_formula_structural   Tb2Cu3H30C24(NO4)6
_chemical_formula_sum   'Tb4 Cu6 H60 C48 N12 O48'
_cell_volume   2250.08641317
_cell_formula_units_Z   2
loop_
 _symmetry_equiv_pos_site_id
 _symmetry_equiv_pos_as_xyz
  1  'x, y, z'
loop_
 _atom_site_type_symbol
 _atom_site_label
 _atom_site_symmetry_multiplicity
 _atom_site_fract_x
 _atom_site_fract_y
 _atom_site_fract_z
 _atom_site_occupancy
  Tb  Tb1  1  0.66666667  0.66659333  0.83116000  1.0
  Tb  Tb2  1  0.33290000  0.33386000  0.66858000  1.0
  Tb  Tb3  1  0.33329000  0.33337667  0.16884000  1.0
  Tb  Tb4  1  0.66762000  0.66596000  0.33180000  1.0
  Cu  Cu1  1  0.49990000  0.50017000  0.00026000  1.0
  Cu  Cu2  1  0.00015000  0.49998000  0.99982000  1.0
  Cu  Cu3  1  0.50004000  0.99997000  0.00006000  1.0
  Cu  Cu4  1  0.00002000  0.49992000  0.50019000  1.0
  Cu  Cu5  1  0.49959000  0.50017000  0.49986000  1.0
  Cu  Cu6  1  0.49993000  0.00023000  0.50009000  1.0
  H  H1  1  0.03636000  0.32249000  0.58373000  1.0
  H  H2  1  0.91565000  0.39596000  0.70542000  1.0
  H  H3  1  0.79609000  0.46336000  0.63193000  1.0
  H  H4  1  0.86199000  0.30552000  0.52621000  1.0
  H  H5  1  0.97100000  0.28765000  0.44645000  1.0
  H  H6  1  0.64256000  0.03607000  0.58365000  1.0
  H  H7  1  0.68792000  0.91564000  0.70546000  1.0
  H  H8  1  0.74088000  0.79627000  0.63198000  1.0
  H  H9  1  0.83233000  0.86051000  0.52510000  1.0
  H  H10  1  0.74160000  0.97062000  0.44604000  1.0
  H  H11  1  0.32236000  0.64099000  0.58334000  1.0
  H  H12  1  0.39579000  0.68845000  0.70493000  1.0
  H  H13  1  0.46425000  0.73963000  0.63168000  1.0
  H  H14  1  0.30536000  0.83208000  0.52619000  1.0
  H  H15  1  0.28710000  0.74124000  0.44625000  1.0
  H  H16  1  0.35882000  0.67753000  0.91691000  1.0
  H  H17  1  0.31140000  0.60457000  0.79510000  1.0
  H  H18  1  0.25964000  0.53644000  0.86811000  1.0
  H  H19  1  0.16762000  0.69423000  0.97408000  1.0
  H  H20  1  0.25866000  0.71237000  0.05398000  1.0
  H  H21  1  0.67738000  0.96445000  0.91650000  1.0
  H  H22  1  0.60275000  0.08480000  0.79478000  1.0
  H  H23  1  0.53658000  0.20431000  0.86813000  1.0
  H  H24  1  0.69430000  0.13847000  0.97416000  1.0
  H  H25  1  0.71232000  0.02936000  0.05384000  1.0
  H  H26  1  0.96354000  0.35891000  0.91640000  1.0
  H  H27  1  0.08425000  0.31194000  0.79475000  1.0
  H  H28  1  0.20385000  0.26004000  0.86817000  1.0
  H  H29  1  0.13751000  0.16794000  0.97355000  1.0
  H  H30  1  0.02863000  0.25864000  0.05339000  1.0
  H  H31  1  0.96330000  0.67738000  0.41649000  1.0
  H  H32  1  0.08429000  0.60386000  0.29465000  1.0
  H  H33  1  0.20370000  0.53666000  0.36833000  1.0
  H  H34  1  0.13801000  0.69427000  0.47384000  1.0
  H  H35  1  0.02893000  0.71256000  0.55360000  1.0
  H  H36  1  0.35808000  0.96404000  0.41675000  1.0
  H  H37  1  0.31199000  0.08422000  0.29491000  1.0
  H  H38  1  0.25896000  0.20389000  0.36820000  1.0
  H  H39  1  0.16737000  0.13827000  0.47424000  1.0
  H  H40  1  0.25819000  0.02905000  0.55390000  1.0
  H  H41  1  0.67697000  0.35943000  0.41638000  1.0
  H  H42  1  0.60338000  0.31223000  0.29473000  1.0
  H  H43  1  0.53556000  0.26040000  0.36803000  1.0
  H  H44  1  0.69405000  0.16827000  0.47351000  1.0
  H  H45  1  0.71268000  0.25909000  0.55331000  1.0
  H  H46  1  0.64082000  0.32284000  0.08365000  1.0
  H  H47  1  0.68830000  0.39598000  0.20551000  1.0
  H  H48  1  0.73981000  0.46414000  0.13239000  1.0
  H  H49  1  0.83204000  0.30624000  0.02660000  1.0
  H  H50  1  0.74106000  0.28785000  0.94678000  1.0
  H  H51  1  0.32258000  0.03562000  0.08338000  1.0
  H  H52  1  0.39693000  0.91523000  0.20512000  1.0
  H  H53  1  0.46335000  0.79568000  0.13171000  1.0
  H  H54  1  0.30569000  0.86151000  0.02579000  1.0
  H  H55  1  0.28750000  0.97070000  0.94608000  1.0
  H  H56  1  0.03612000  0.64112000  0.08382000  1.0
  H  H57  1  0.91545000  0.68726000  0.20530000  1.0
  H  H58  1  0.79575000  0.73999000  0.13190000  1.0
  H  H59  1  0.86236000  0.83210000  0.02648000  1.0
  H  H60  1  0.97133000  0.74130000  0.94673000  1.0
  C  C1  1  0.87411000  0.56474000  0.66151000  1.0
  C  C2  1  0.88372000  0.44857000  0.64249000  1.0
  C  C3  1  0.81539000  0.44687000  0.43213000  1.0
  C  C4  1  0.90364000  0.34920000  0.49304000  1.0
  C  C5  1  0.56164000  0.87294000  0.66025000  1.0
  C  C6  1  0.66787000  0.88359000  0.64220000  1.0
  C  C7  1  0.73496000  0.81630000  0.43185000  1.0
  C  C8  1  0.74670000  0.90344000  0.49249000  1.0
  C  C9  1  0.56470000  0.56082000  0.66147000  1.0
  C  C10  1  0.44874000  0.66734000  0.64219000  1.0
  C  C11  1  0.44632000  0.73787000  0.43179000  1.0
  C  C12  1  0.34889000  0.74694000  0.49287000  1.0
  C  C13  1  0.43882000  0.43551000  0.83861000  1.0
  C  C14  1  0.33229000  0.55154000  0.85778000  1.0
  C  C15  1  0.26220000  0.55302000  0.06819000  1.0
  C  C16  1  0.25288000  0.65071000  0.00736000  1.0
  C  C17  1  0.43387000  0.12749000  0.83976000  1.0
  C  C18  1  0.55066000  0.11703000  0.85792000  1.0
  C  C19  1  0.55293000  0.18483000  0.06820000  1.0
  C  C20  1  0.65064000  0.09676000  0.00728000  1.0
  C  C21  1  0.12621000  0.43901000  0.83868000  1.0
  C  C22  1  0.11630000  0.33263000  0.85769000  1.0
  C  C23  1  0.18465000  0.26216000  0.06799000  1.0
  C  C24  1  0.09611000  0.25301000  0.00693000  1.0
  C  C25  1  0.12585000  0.43518000  0.33866000  1.0
  C  C26  1  0.11611000  0.55138000  0.35764000  1.0
  C  C27  1  0.18443000  0.55323000  0.56798000  1.0
  C  C28  1  0.09615000  0.65084000  0.50703000  1.0
  C  C29  1  0.43807000  0.12728000  0.33974000  1.0
  C  C30  1  0.33198000  0.11656000  0.35806000  1.0
  C  C31  1  0.26236000  0.18475000  0.56827000  1.0
  C  C32  1  0.25268000  0.09644000  0.50746000  1.0
  C  C33  1  0.43431000  0.43915000  0.33861000  1.0
  C  C34  1  0.55066000  0.33298000  0.35759000  1.0
  C  C35  1  0.55354000  0.26232000  0.56817000  1.0
  C  C36  1  0.65072000  0.25339000  0.50687000  1.0
  C  C37  1  0.56089000  0.56501000  0.16178000  1.0
  C  C38  1  0.66727000  0.44891000  0.14276000  1.0
  C  C39  1  0.73759000  0.44702000  0.93211000  1.0
  C  C40  1  0.74680000  0.34963000  0.99328000  1.0
  C  C41  1  0.56591000  0.87257000  0.16034000  1.0
  C  C42  1  0.44916000  0.88299000  0.14202000  1.0
  C  C43  1  0.44703000  0.81521000  0.93173000  1.0
  C  C44  1  0.34927000  0.90331000  0.99263000  1.0
  C  C45  1  0.87282000  0.56084000  0.16033000  1.0
  C  C46  1  0.88319000  0.66716000  0.14216000  1.0
  C  C47  1  0.81537000  0.73783000  0.93197000  1.0
  C  C48  1  0.90377000  0.74701000  0.99313000  1.0
  N  N1  1  0.95734000  0.38936000  0.56153000  1.0
  N  N2  1  0.65371000  0.95743000  0.56146000  1.0
  N  N3  1  0.38934000  0.65308000  0.56114000  1.0
  N  N4  1  0.34666000  0.61060000  0.93897000  1.0
  N  N5  1  0.61035000  0.04322000  0.93873000  1.0
  N  N6  1  0.04265000  0.34689000  0.93861000  1.0
  N  N7  1  0.04237000  0.61066000  0.43857000  1.0
  N  N8  1  0.34632000  0.04292000  0.43896000  1.0
  N  N9  1  0.61004000  0.34729000  0.43860000  1.0
  N  N10  1  0.65296000  0.38980000  0.06161000  1.0
  N  N11  1  0.38958000  0.95681000  0.06119000  1.0
  N  N12  1  0.95709000  0.65312000  0.06143000  1.0
  O  O1  1  0.81721000  0.62129000  0.73134000  1.0
  O  O2  1  0.92275000  0.60205000  0.60653000  1.0
  O  O3  1  0.80914000  0.54519000  0.43984000  1.0
  O  O4  1  0.75433000  0.42785000  0.37617000  1.0
  O  O5  1  0.56325000  0.81283000  0.72821000  1.0
  O  O6  1  0.47475000  0.92359000  0.60647000  1.0
  O  O7  1  0.64171000  0.81227000  0.43954000  1.0
  O  O8  1  0.81458000  0.75347000  0.37619000  1.0
  O  O9  1  0.62128000  0.56100000  0.73152000  1.0
  O  O10  1  0.60204000  0.47510000  0.60636000  1.0
  O  O11  1  0.54505000  0.64646000  0.43966000  1.0
  O  O12  1  0.42594000  0.81804000  0.37578000  1.0
  O  O13  1  0.43854000  0.37907000  0.76852000  1.0
  O  O14  1  0.52471000  0.39812000  0.89369000  1.0
  O  O15  1  0.35392000  0.45471000  0.06032000  1.0
  O  O16  1  0.18213000  0.57226000  0.12412000  1.0
  O  O17  1  0.37519000  0.18734000  0.77167000  1.0
  O  O18  1  0.39790000  0.07672000  0.89364000  1.0
  O  O19  1  0.45442000  0.19141000  0.06037000  1.0
  O  O20  1  0.57245000  0.24536000  0.12430000  1.0
  O  O21  1  0.18348000  0.43860000  0.76899000  1.0
  O  O22  1  0.07730000  0.52504000  0.89342000  1.0
  O  O23  1  0.19155000  0.35381000  0.06023000  1.0
  O  O24  1  0.24517000  0.18212000  0.12400000  1.0
  O  O25  1  0.18302000  0.37858000  0.26892000  1.0
  O  O26  1  0.07692000  0.39804000  0.39348000  1.0
  O  O27  1  0.19099000  0.45483000  0.56013000  1.0
  O  O28  1  0.24522000  0.57253000  0.62402000  1.0
  O  O29  1  0.43634000  0.18681000  0.27132000  1.0
  O  O30  1  0.52493000  0.07719000  0.39364000  1.0
  O  O31  1  0.35416000  0.19150000  0.56031000  1.0
  O  O32  1  0.18239000  0.24566000  0.62422000  1.0
  O  O33  1  0.37828000  0.43887000  0.26827000  1.0
  O  O34  1  0.39587000  0.52456000  0.39409000  1.0
  O  O35  1  0.45473000  0.35357000  0.56043000  1.0
  O  O36  1  0.57425000  0.18210000  0.62428000  1.0
  O  O37  1  0.56116000  0.62139000  0.23185000  1.0
  O  O38  1  0.47523000  0.60262000  0.10638000  1.0
  O  O39  1  0.64599000  0.54544000  0.93976000  1.0
  O  O40  1  0.81766000  0.42725000  0.87602000  1.0
  O  O41  1  0.62433000  0.81285000  0.22850000  1.0
  O  O42  1  0.60207000  0.92324000  0.10645000  1.0
  O  O43  1  0.54560000  0.80855000  0.93956000  1.0
  O  O44  1  0.42752000  0.75460000  0.87572000  1.0
  O  O45  1  0.81341000  0.56144000  0.22857000  1.0
  O  O46  1  0.92330000  0.47452000  0.10617000  1.0
  O  O47  1  0.80851000  0.64614000  0.93969000  1.0
  O  O48  1  0.75495000  0.81786000  0.87593000  1.0
