# generated using pymatgen
data_H24C41(NO)8
_symmetry_space_group_name_H-M   'P 1'
_cell_length_a   41.82310000
_cell_length_b   44.93300000
_cell_length_c   44.93300000
_cell_angle_alpha   90.00000000
_cell_angle_beta   90.00000000
_cell_angle_gamma   90.00000000
_symmetry_Int_Tables_number   1
_chemical_formula_structural   H24C41(NO)8
_chemical_formula_sum   'H192 C328 N64 O64'
_cell_volume   84439.77195090
_cell_formula_units_Z   8
loop_
 _symmetry_equiv_pos_site_id
 _symmetry_equiv_pos_as_xyz
  1  'x, y, z'
loop_
 _atom_site_type_symbol
 _atom_site_label
 _atom_site_symmetry_multiplicity
 _atom_site_fract_x
 _atom_site_fract_y
 _atom_site_fract_z
 _atom_site_occupancy
  H  26  1  0.09985200  0.19551600  0.21509600  1
  H  27  1  0.13619700  0.16410100  0.18971200  1
  H  28  1  0.05399500  0.21489800  0.13387600  1
  H  29  1  0.09027400  0.18315400  0.10852200  1
  H  30  1  0.13984600  0.16539600  0.06899600  1
  H  31  1  0.17547600  0.19785200  0.04430700  1
  H  32  1  0.22126500  0.21604200  0.12586000  1
  H  33  1  0.18580200  0.18300000  0.15047300  1
  H  34  1  0.20332300  0.12853200  0.13346500  1
  H  35  1  0.22792900  0.09363500  0.16574500  1
  H  36  1  0.13799400  0.07347600  0.20290800  1
  H  37  1  0.11361400  0.10878300  0.17115400  1
  H  38  1  0.07302500  0.12842000  0.12453900  1
  H  39  1  0.16261100  0.10985500  0.08603200  1
  H  40  1  0.13786500  0.07685700  0.05206600  1
  H  41  1  0.04806300  0.09594800  0.09012700  1
  H  44  1  0.24420500  0.23511900  0.07962100  1
  H  45  1  0.02792000  0.22675700  0.18253700  1
  H  47  1  0.18415200  0.04319300  0.21510600  1
  H  49  1  0.08985400  0.05818500  0.02839400  1
  H  75  1  0.60013300  0.59612900  0.04397500  1
  H  76  1  0.63580900  0.62846200  0.06887200  1
  H  77  1  0.55500000  0.57675600  0.12556300  1
  H  78  1  0.59050900  0.60956300  0.15037300  1
  H  79  1  0.63955100  0.62784500  0.18958300  1
  H  80  1  0.67584000  0.59622700  0.21469500  1
  H  81  1  0.72221200  0.57809100  0.13343500  1
  H  82  1  0.68599900  0.61014300  0.10835200  1
  H  83  1  0.70303800  0.66471600  0.12510500  1
  H  84  1  0.72761500  0.69944500  0.09266000  1
  H  85  1  0.63776500  0.71890100  0.05496700  1
  H  86  1  0.61341000  0.68373500  0.08691200  1
  H  87  1  0.57276100  0.66423900  0.13401600  1
  H  88  1  0.66241200  0.68346400  0.17208400  1
  H  89  1  0.63764800  0.71656400  0.20592400  1
  H  90  1  0.54777700  0.69683700  0.16832300  1
  H  93  1  0.74792500  0.56523900  0.18191000  1
  H  94  1  0.53160900  0.55849300  0.07919800  1
  H  96  1  0.68385200  0.74921900  0.04257100  1
  H  98  1  0.58962000  0.73493800  0.22979700  1
  H  124  1  0.67608600  0.09671400  0.71458300  1
  H  125  1  0.64034300  0.12901000  0.68974600  1
  H  126  1  0.72032300  0.07650800  0.63277500  1
  H  127  1  0.68475400  0.10930000  0.60801100  1
  H  128  1  0.63536200  0.12818700  0.56876800  1
  H  129  1  0.59968600  0.09578700  0.54409200  1
  H  130  1  0.55481100  0.07660500  0.62585600  1
  H  131  1  0.59031500  0.10961000  0.65047000  1
  H  132  1  0.57239700  0.16419300  0.63379400  1
  H  133  1  0.54782700  0.19898900  0.66617100  1
  H  134  1  0.63785600  0.21943700  0.70295900  1
  H  135  1  0.66221800  0.18421500  0.67108700  1
  H  136  1  0.70289200  0.16402100  0.62407100  1
  H  137  1  0.61308800  0.18363100  0.58652200  1
  H  138  1  0.63778900  0.21671600  0.55261600  1
  H  139  1  0.72779700  0.19658900  0.58970900  1
  H  142  1  0.53146300  0.05794900  0.57956200  1
  H  143  1  0.74413500  0.05861400  0.67915700  1
  H  145  1  0.59164200  0.24948200  0.71551100  1
  H  147  1  0.68579100  0.23495200  0.52852000  1
  H  173  1  0.17555400  0.69655900  0.54360900  1
  H  174  1  0.13921100  0.66500700  0.56879300  1
  H  175  1  0.22210300  0.71460300  0.62479200  1
  H  176  1  0.18581900  0.68270200  0.64994000  1
  H  177  1  0.13598700  0.66527700  0.68924800  1
  H  178  1  0.10033900  0.69767600  0.71404000  1
  H  179  1  0.05436400  0.71586300  0.63258600  1
  H  180  1  0.08986500  0.68295800  0.60788000  1
  H  181  1  0.07253000  0.62842200  0.62454500  1
  H  182  1  0.04757500  0.59582200  0.59020700  1
  H  183  1  0.13745300  0.57632000  0.55250700  1
  H  184  1  0.16218300  0.60940700  0.58638800  1
  H  185  1  0.20265400  0.62811900  0.63350000  1
  H  186  1  0.11305300  0.60977400  0.67207100  1
  H  187  1  0.13775200  0.57679600  0.70609500  1
  H  188  1  0.22757300  0.59564800  0.66795600  1
  H  191  1  0.03138700  0.73474200  0.67887500  1
  H  192  1  0.24786100  0.72718200  0.57624900  1
  H  194  1  0.08944800  0.55792600  0.52861500  1
  H  196  1  0.18572800  0.55809000  0.72979500  1
  H  222  1  0.42793600  0.98120700  0.42959300  1
  H  223  1  0.39235300  0.95727500  0.39642500  1
  H  224  1  0.46891800  0.89821900  0.45096700  1
  H  225  1  0.43370800  0.87442300  0.41729600  1
  H  226  1  0.38401800  0.83585900  0.39748000  1
  H  227  1  0.34985500  0.81209900  0.43191400  1
  H  228  1  0.30791900  0.89480500  0.45264500  1
  H  229  1  0.34181100  0.91850200  0.41761000  1
  H  230  1  0.32226200  0.90205100  0.36312700  1
  H  231  1  0.29770700  0.93403900  0.32801000  1
  H  232  1  0.38792900  0.96922200  0.30561200  1
  H  233  1  0.41236300  0.93772400  0.34125200  1
  H  234  1  0.45294100  0.89035600  0.36245000  1
  H  235  1  0.36249600  0.85444200  0.34232000  1
  H  236  1  0.38654000  0.82099000  0.30844600  1
  H  237  1  0.47720100  0.85642100  0.32903600  1
  H  240  1  0.29307000  0.85071200  0.48102500  1
  H  241  1  0.49100900  0.94266700  0.47257600  1
  H  243  1  0.34060400  0.97971300  0.27446800  1
  H  245  1  0.43288600  0.79997700  0.28533100  1
  H  271  1  0.92777500  0.81182300  0.82856600  1
  H  272  1  0.89229500  0.83570300  0.86187600  1
  H  273  1  0.96882200  0.89482300  0.80737000  1
  H  274  1  0.93369300  0.91856200  0.84116000  1
  H  275  1  0.88374200  0.95710200  0.86101900  1
  H  276  1  0.84827800  0.98090800  0.82771200  1
  H  277  1  0.80647400  0.89800500  0.80745000  1
  H  278  1  0.84162700  0.87431600  0.84131000  1
  H  279  1  0.82245100  0.89121700  0.89587700  1
  H  280  1  0.79790900  0.85916500  0.93091000  1
  H  281  1  0.88803200  0.82332500  0.95258800  1
  H  282  1  0.91245600  0.85491200  0.91699800  1
  H  283  1  0.95302900  0.90257600  0.89596200  1
  H  284  1  0.86261700  0.93849200  0.91622100  1
  H  285  1  0.88671400  0.97198400  0.95000900  1
  H  286  1  0.97734600  0.93655600  0.92930900  1
  H  289  1  0.78489500  0.94241300  0.78511500  1
  H  290  1  0.99071700  0.85043900  0.78545500  1
  H  292  1  0.84076800  0.81291400  0.98392200  1
  H  294  1  0.93307600  0.99305300  0.97300100  1
  H  320  1  0.84977800  0.48076600  0.32659000  1
  H  321  1  0.88402700  0.45691500  0.36088600  1
  H  322  1  0.80782900  0.39810600  0.30568400  1
  H  323  1  0.84179400  0.37432100  0.34057100  1
  H  324  1  0.89164700  0.33567700  0.36097300  1
  H  325  1  0.92593900  0.31178200  0.32673700  1
  H  326  1  0.96794000  0.39440900  0.30579900  1
  H  327  1  0.93393200  0.41823600  0.34062200  1
  H  328  1  0.95319900  0.40272800  0.39522600  1
  H  329  1  0.97740600  0.43661400  0.42876000  1
  H  330  1  0.88659200  0.47124600  0.45010500  1
  H  331  1  0.86260500  0.43784500  0.41614800  1
  H  332  1  0.82242200  0.38992000  0.39511200  1
  H  333  1  0.91297000  0.35483000  0.41625900  1
  H  334  1  0.88890200  0.32147200  0.45021000  1
  H  335  1  0.79813900  0.35607200  0.42863600  1
  H  338  1  0.98279000  0.35024300  0.27757100  1
  H  339  1  0.79297200  0.44224000  0.27741900  1
  H  341  1  0.93289900  0.49251900  0.47301900  1
  H  343  1  0.84254000  0.30019600  0.47302400  1
  H  369  1  0.34783900  0.31188600  0.92979900  1
  H  370  1  0.38332000  0.33575500  0.89648700  1
  H  371  1  0.30682400  0.39489900  0.95101100  1
  H  372  1  0.34195500  0.41863000  0.91721600  1
  H  373  1  0.39197000  0.45714000  0.89735500  1
  H  374  1  0.42747000  0.48090200  0.93065800  1
  H  375  1  0.46917400  0.39795000  0.95090800  1
  H  376  1  0.43398500  0.37430400  0.91705100  1
  H  377  1  0.45316400  0.39121300  0.86250600  1
  H  378  1  0.47768400  0.35911900  0.82750000  1
  H  379  1  0.38752500  0.32334300  0.80581500  1
  H  380  1  0.36312300  0.35497300  0.84138100  1
  H  381  1  0.32260000  0.40263000  0.86242500  1
  H  382  1  0.41301100  0.43854100  0.84215500  1
  H  383  1  0.38891500  0.47202200  0.80835600  1
  H  384  1  0.29828300  0.43659800  0.82906700  1
  H  387  1  0.49079600  0.44233100  0.97325700  1
  H  388  1  0.28492200  0.35051300  0.97291900  1
  H  390  1  0.43478400  0.31281400  0.77453000  1
  H  392  1  0.34254800  0.49306700  0.78534000  1
  H  398  1  0.03317500  0.97059100  0.99202700  1
  H  400  1  0.96100800  0.03538100  0.98999100  1
  H  414  1  0.53296400  0.82248200  0.26627000  1
  H  416  1  0.46083900  0.75764700  0.26833500  1
  H  430  1  0.74243500  0.32247100  0.49197000  1
  H  432  1  0.81462900  0.25771200  0.48989600  1
  H  446  1  0.24245000  0.47058200  0.76635800  1
  H  448  1  0.31459900  0.53539400  0.76835000  1
  H  462  1  0.49182400  0.22514800  0.73743500  1
  H  464  1  0.56418900  0.28977800  0.73575900  1
  H  478  1  0.28386300  0.73260300  0.53163800  1
  H  480  1  0.20443500  0.78607800  0.51225100  1
  H  494  1  0.78398100  0.56014200  0.22663300  1
  H  496  1  0.70440800  0.50695000  0.24629300  1
  H  510  1  0.53521700  0.97186400  0.48803700  1
  H  512  1  0.46087700  0.03435500  0.49294500  1
  H  526  1  0.03508800  0.82132900  0.77003900  1
  H  528  1  0.96099100  0.75857500  0.76543400  1
  H  542  1  0.24053500  0.32135400  0.98822600  1
  H  544  1  0.31473300  0.25871200  0.99300900  1
  H  558  1  0.99196900  0.23215400  0.22714000  1
  H  560  1  0.07143500  0.28558700  0.24654000  1
  H  574  1  0.78385700  0.72524100  0.02118400  1
  H  576  1  0.71131300  0.78969700  0.02254900  1
  H  590  1  0.53525300  0.47156400  0.98847700  1
  H  592  1  0.46118600  0.53436400  0.99281500  1
  H  606  1  0.74046200  0.97170800  0.76993400  1
  H  608  1  0.81463200  0.03439500  0.76551000  1
  H  622  1  0.28395800  0.06758500  0.23720600  1
  H  624  1  0.21143800  0.00309700  0.23572000  1
  H  638  1  0.03301000  0.47032200  0.49204100  1
  H  640  1  0.96075000  0.53502300  0.48994000  1
  C  1  1  0.09010300  0.08332400  0.06688100  1
  C  2  1  0.12360900  0.08784800  0.06698700  1
  C  3  1  0.13831700  0.10754200  0.08721200  1
  C  4  1  0.12059500  0.12483100  0.10799900  1
  C  5  1  0.08721000  0.11864300  0.10887100  1
  C  6  1  0.07228800  0.09881800  0.08873800  1
  C  7  1  0.13814100  0.14647100  0.12914700  1
  C  8  1  0.15572200  0.12441300  0.14979600  1
  C  9  1  0.13790200  0.10644500  0.16991400  1
  C  10  1  0.15239100  0.08537100  0.18881800  1
  C  11  1  0.18581200  0.08037200  0.18843700  1
  C  12  1  0.20385200  0.09716500  0.16774800  1
  C  13  1  0.18910900  0.11822300  0.14876500  1
  C  14  1  0.16021700  0.16831000  0.11239200  1
  C  15  1  0.11596400  0.16789500  0.14633100  1
  C  16  1  0.11861600  0.17390000  0.17738000  1
  C  17  1  0.09740800  0.19312200  0.19255900  1
  C  18  1  0.07266900  0.20822000  0.17731700  1
  C  19  1  0.07113900  0.20416100  0.14610400  1
  C  20  1  0.09266400  0.18519400  0.13107700  1
  C  21  1  0.15743100  0.17497100  0.08149400  1
  C  22  1  0.17829400  0.19480300  0.06672300  1
  C  23  1  0.20280500  0.21000400  0.08222000  1
  C  24  1  0.20444100  0.20520100  0.11334600  1
  C  25  1  0.18337600  0.18547400  0.12796400  1
  C  42  1  0.04941900  0.22532600  0.19192900  1
  C  43  1  0.07630900  0.06444400  0.04551000  1
  C  46  1  0.19900700  0.05842000  0.20697200  1
  C  48  1  0.22502300  0.22876700  0.06811900  1
  C  50  1  0.58985900  0.70980500  0.19131200  1
  C  51  1  0.62338600  0.70544100  0.19110400  1
  C  52  1  0.63810700  0.68570500  0.17093500  1
  C  53  1  0.62038300  0.66819900  0.15033200  1
  C  54  1  0.58696300  0.67422500  0.14953900  1
  C  55  1  0.57202900  0.69411100  0.16960900  1
  C  56  1  0.63795200  0.64646000  0.12932100  1
  C  57  1  0.65550000  0.66840100  0.10850500  1
  C  58  1  0.63768600  0.68617000  0.08820500  1
  C  59  1  0.65215900  0.70716600  0.06919200  1
  C  60  1  0.68555500  0.71232700  0.06965900  1
  C  61  1  0.70357100  0.69578000  0.09056300  1
  C  62  1  0.68884200  0.67480200  0.10964200  1
  C  63  1  0.66010700  0.62482500  0.14626100  1
  C  64  1  0.61581300  0.62483400  0.11235000  1
  C  65  1  0.61837700  0.61861400  0.08134500  1
  C  66  1  0.59748100  0.59888200  0.06644600  1
  C  67  1  0.57314500  0.58338400  0.08189500  1
  C  68  1  0.57169400  0.58781000  0.11308100  1
  C  69  1  0.59280000  0.60740200  0.12781900  1
  C  70  1  0.65725500  0.61831300  0.17719600  1
  C  71  1  0.67842700  0.59894400  0.19220800  1
  C  72  1  0.70331300  0.58414700  0.17688500  1
  C  73  1  0.70498700  0.58863100  0.14573100  1
  C  74  1  0.68350600  0.60777800  0.13086600  1
  C  91  1  0.55087800  0.56470000  0.06774000  1
  C  92  1  0.57607000  0.72868200  0.21268500  1
  C  95  1  0.69875300  0.73420400  0.05102100  1
  C  97  1  0.72649400  0.56687700  0.19140200  1
  C  99  1  0.68563400  0.20976500  0.56697000  1
  C  100  1  0.65209200  0.20550800  0.56733700  1
  C  101  1  0.63740700  0.18578300  0.58754500  1
  C  102  1  0.65517900  0.16818000  0.60803100  1
  C  103  1  0.68863000  0.17408000  0.60864600  1
  C  104  1  0.70352800  0.19395100  0.58854000  1
  C  105  1  0.63763600  0.14649200  0.62912900  1
  C  106  1  0.62007200  0.16843100  0.64992300  1
  C  107  1  0.63791400  0.18646500  0.66996600  1
  C  108  1  0.62343400  0.20748800  0.68893800  1
  C  109  1  0.58999000  0.21238100  0.68871100  1
  C  110  1  0.57192400  0.19553500  0.66808500  1
  C  111  1  0.58665500  0.17452700  0.64904100  1
  C  112  1  0.61545500  0.12477700  0.61231800  1
  C  113  1  0.65987300  0.12495500  0.64611900  1
  C  114  1  0.65760100  0.11900200  0.67719600  1
  C  115  1  0.67852800  0.09927900  0.69207000  1
  C  116  1  0.70261700  0.08353800  0.67653500  1
  C  117  1  0.70380800  0.08773400  0.64530900  1
  C  118  1  0.68266900  0.10731700  0.63059800  1
  C  119  1  0.61795600  0.11842400  0.58133200  1
  C  120  1  0.59706800  0.09861800  0.56655600  1
  C  121  1  0.57281600  0.08313500  0.58212200  1
  C  122  1  0.57144100  0.08765600  0.61329900  1
  C  123  1  0.59253000  0.10736200  0.62791600  1
  C  140  1  0.72489900  0.06484600  0.69065200  1
  C  141  1  0.69938700  0.22865800  0.54558700  1
  C  144  1  0.57678500  0.23431300  0.70727500  1
  C  146  1  0.55060100  0.06436500  0.56803200  1
  C  148  1  0.18552400  0.58316300  0.69126400  1
  C  149  1  0.15202200  0.58772300  0.69113900  1
  C  150  1  0.13733700  0.60738400  0.67086000  1
  C  151  1  0.15510200  0.62465800  0.65009800  1
  C  152  1  0.18846000  0.61836500  0.64917700  1
  C  153  1  0.20335400  0.59855500  0.66934500  1
  C  154  1  0.13763900  0.64644400  0.62906700  1
  C  155  1  0.12013000  0.62458300  0.60816000  1
  C  156  1  0.13788600  0.60711000  0.58755900  1
  C  157  1  0.12318200  0.58739400  0.56735500  1
  C  158  1  0.08965900  0.58298100  0.56715100  1
  C  159  1  0.07181900  0.59859300  0.58891000  1
  C  160  1  0.08673400  0.61846700  0.60900200  1
  C  161  1  0.11551800  0.66819600  0.64590100  1
  C  162  1  0.15984000  0.66801200  0.61207700  1
  C  163  1  0.15695700  0.67451900  0.58114500  1
  C  164  1  0.17816700  0.69383500  0.56609100  1
  C  165  1  0.20312100  0.70858100  0.58137200  1
  C  166  1  0.20482200  0.70410800  0.61252200  1
  C  167  1  0.18328400  0.68505000  0.62742900  1
  C  168  1  0.11835900  0.67484600  0.67679800  1
  C  169  1  0.09747900  0.69463100  0.69162900  1
  C  170  1  0.07290100  0.70980500  0.67619500  1
  C  171  1  0.07122200  0.70503100  0.64506600  1
  C  172  1  0.09231200  0.68536900  0.63039400  1
  C  189  1  0.22637400  0.72575800  0.56683200  1
  C  190  1  0.19930000  0.56433500  0.71269400  1
  C  193  1  0.07588400  0.56413700  0.54573600  1
  C  195  1  0.05065100  0.72852000  0.69032900  1
  C  197  1  0.43467200  0.83451100  0.31550300  1
  C  198  1  0.40114900  0.83519400  0.31997200  1
  C  199  1  0.38683200  0.85513200  0.34018600  1
  C  200  1  0.40493700  0.87515100  0.35801000  1
  C  201  1  0.43841400  0.87529300  0.35217100  1
  C  202  1  0.45295100  0.85538600  0.33186000  1
  C  203  1  0.38766200  0.89641400  0.37971800  1
  C  204  1  0.37013500  0.91737400  0.35791000  1
  C  205  1  0.38801100  0.93692100  0.33934300  1
  C  206  1  0.37352100  0.95564600  0.31807800  1
  C  207  1  0.34002500  0.95569300  0.31361800  1
  C  208  1  0.32187700  0.93571200  0.33114200  1
  C  209  1  0.33661600  0.91688900  0.35232400  1
  C  210  1  0.36541300  0.87984500  0.40160400  1
  C  211  1  0.41026400  0.91311400  0.40114600  1
  C  212  1  0.40898500  0.94430100  0.40680300  1
  C  213  1  0.42983000  0.95865100  0.42700600  1
  C  214  1  0.45282400  0.94247600  0.44351100  1
  C  215  1  0.45320000  0.91122700  0.43929400  1
  C  216  1  0.43226900  0.89706600  0.41916600  1
  C  217  1  0.36728300  0.84877600  0.40777800  1
  C  218  1  0.34722200  0.83451100  0.42868500  1
  C  219  1  0.32447900  0.85067200  0.44547800  1
  C  220  1  0.32342900  0.88182500  0.44070700  1
  C  221  1  0.34353500  0.89590200  0.41976200  1
  C  238  1  0.47469300  0.95577300  0.46323400  1
  C  239  1  0.44787700  0.81386600  0.29543300  1
  C  242  1  0.32665700  0.97374900  0.29140500  1
  C  244  1  0.30436100  0.83742400  0.46675000  1
  C  246  1  0.93483800  0.95847100  0.94289000  1
  C  247  1  0.90130900  0.95777400  0.93847400  1
  C  248  1  0.88696000  0.93781100  0.91830600  1
  C  249  1  0.90503200  0.91777000  0.90047800  1
  C  250  1  0.93852300  0.91765200  0.90624800  1
  C  251  1  0.95309100  0.93757900  0.92652100  1
  C  252  1  0.88773300  0.89650500  0.87879400  1
  C  253  1  0.87025200  0.87553800  0.90064900  1
  C  254  1  0.88812000  0.85582400  0.91904100  1
  C  255  1  0.87363800  0.83705200  0.94027700  1
  C  256  1  0.84016600  0.83714600  0.94490800  1
  C  257  1  0.82204400  0.85735100  0.92762500  1
  C  258  1  0.83677800  0.87621300  0.90647800  1
  C  259  1  0.86534100  0.91303600  0.85701500  1
  C  260  1  0.91026300  0.87985100  0.85726900  1
  C  261  1  0.90893400  0.84868300  0.85151800  1
  C  262  1  0.92971400  0.83436800  0.83122600  1
  C  263  1  0.95270400  0.85055700  0.81472800  1
  C  264  1  0.95311500  0.88179600  0.81903400  1
  C  265  1  0.93224400  0.89592400  0.83924600  1
  C  266  1  0.86694300  0.94412700  0.85088400  1
  C  267  1  0.84616000  0.95840200  0.83058500  1
  C  268  1  0.82292600  0.94223100  0.81437800  1
  C  269  1  0.82234500  0.91102000  0.81892700  1
  C  270  1  0.84322900  0.89692800  0.83916900  1
  C  287  1  0.97452000  0.83729000  0.79492100  1
  C  288  1  0.94806100  0.97914600  0.96291500  1
  C  291  1  0.82678300  0.81902800  0.96706800  1
  C  293  1  0.80109100  0.95553500  0.79461300  1
  C  295  1  0.84072300  0.33460200  0.44270100  1
  C  296  1  0.87427600  0.33548400  0.43847000  1
  C  297  1  0.88860800  0.35536000  0.41820400  1
  C  298  1  0.87050500  0.37514700  0.40012000  1
  C  299  1  0.83697100  0.37505400  0.40564600  1
  C  300  1  0.82242200  0.35520600  0.42601600  1
  C  301  1  0.88782800  0.39631200  0.37836300  1
  C  302  1  0.90510800  0.41751900  0.40010600  1
  C  303  1  0.88696000  0.43731500  0.41814400  1
  C  304  1  0.90124700  0.45722000  0.43841000  1
  C  305  1  0.93479000  0.45810800  0.44270800  1
  C  306  1  0.95313000  0.43747800  0.42609000  1
  C  307  1  0.93862600  0.41760400  0.40571500  1
  C  308  1  0.91026600  0.37964700  0.35672600  1
  C  309  1  0.86543600  0.41293200  0.35665300  1
  C  310  1  0.86726500  0.44402500  0.35059100  1
  C  311  1  0.84714500  0.45834600  0.32977300  1
  C  312  1  0.82439400  0.44221800  0.31295200  1
  C  313  1  0.82335000  0.41105600  0.31764200  1
  C  314  1  0.84349600  0.39693100  0.33850800  1
  C  315  1  0.90842500  0.34855200  0.35068000  1
  C  316  1  0.92856700  0.33420400  0.32989500  1
  C  317  1  0.95135300  0.35030600  0.31309300  1
  C  318  1  0.95240000  0.38147400  0.31775500  1
  C  319  1  0.93223000  0.39562400  0.33858600  1
  C  336  1  0.80427200  0.45550200  0.29171800  1
  C  337  1  0.82752400  0.31399200  0.46282200  1
  C  340  1  0.94794100  0.47873500  0.46283500  1
  C  342  1  0.97150200  0.33699900  0.29189200  1
  C  344  1  0.34079000  0.45850900  0.81548200  1
  C  345  1  0.37432000  0.45781900  0.81990000  1
  C  346  1  0.38866800  0.43786900  0.84008100  1
  C  347  1  0.37059700  0.41782800  0.85791000  1
  C  348  1  0.33710800  0.41770100  0.85213200  1
  C  349  1  0.32253700  0.43762700  0.83186000  1
  C  350  1  0.38789600  0.39655400  0.87958000  1
  C  351  1  0.40534300  0.37559000  0.85770500  1
  C  352  1  0.38745800  0.35586900  0.83933600  1
  C  353  1  0.40192900  0.33707700  0.81811100  1
  C  354  1  0.43539900  0.33715700  0.81347500  1
  C  355  1  0.45353900  0.35734500  0.83076300  1
  C  356  1  0.43882700  0.37620900  0.85191600  1
  C  357  1  0.41030000  0.41305000  0.90137400  1
  C  358  1  0.36536100  0.37990700  0.90110300  1
  C  359  1  0.36669200  0.34874100  0.90685600  1
  C  360  1  0.34590700  0.33443100  0.92714400  1
  C  361  1  0.32292900  0.35063100  0.94364400  1
  C  362  1  0.32252300  0.38187000  0.93934200  1
  C  363  1  0.34339400  0.39598900  0.91913000  1
  C  364  1  0.40875800  0.44414500  0.90748400  1
  C  365  1  0.42955500  0.45839500  0.92778700  1
  C  366  1  0.45276700  0.44219300  0.94399100  1
  C  367  1  0.45331400  0.41098500  0.93943800  1
  C  368  1  0.43240000  0.39691500  0.91921000  1
  C  385  1  0.30111900  0.33736900  0.96344900  1
  C  386  1  0.32756300  0.47917100  0.79544400  1
  C  389  1  0.44877600  0.31899200  0.79135300  1
  C  391  1  0.47461900  0.45547100  0.96375600  1
  C  393  1  0.99403500  0.99982100  0.98796300  1
  C  394  1  0.02440600  0.99091400  0.99832300  1
  C  395  1  0.04288500  0.00893000  0.01781900  1
  C  396  1  0.03120400  0.03723500  0.02693500  1
  C  397  1  0.00063700  0.04646700  0.01679700  1
  C  399  1  0.98269000  0.02794600  0.99738600  1
  C  409  1  0.49384200  0.79322900  0.27034200  1
  C  410  1  0.52419600  0.80215800  0.25996200  1
  C  411  1  0.54266200  0.78416700  0.24043100  1
  C  412  1  0.53098200  0.75586700  0.23130000  1
  C  413  1  0.50043900  0.74660600  0.24147300  1
  C  415  1  0.48250400  0.76510300  0.26091700  1
  C  425  1  0.78158500  0.29326100  0.48788400  1
  C  426  1  0.75122400  0.30215800  0.49827500  1
  C  427  1  0.73277700  0.28414700  0.51780600  1
  C  428  1  0.74447400  0.25584700  0.52692400  1
  C  429  1  0.77503600  0.24662500  0.51675800  1
  C  431  1  0.79295700  0.26514300  0.49732000  1
  C  441  1  0.28158100  0.49982600  0.77040000  1
  C  442  1  0.25121500  0.49090600  0.76004600  1
  C  443  1  0.23273600  0.50889900  0.74052800  1
  C  444  1  0.24441100  0.53719700  0.73138600  1
  C  445  1  0.27497000  0.54644900  0.74152600  1
  C  447  1  0.29292000  0.52795000  0.76095700  1
  C  457  1  0.53099900  0.25434500  0.73336000  1
  C  458  1  0.50057300  0.24550500  0.74365800  1
  C  459  1  0.48202800  0.26357900  0.76305500  1
  C  460  1  0.49372800  0.29186500  0.77220500  1
  C  461  1  0.52438800  0.30099200  0.76222700  1
  C  463  1  0.54237100  0.28244000  0.74287400  1
  C  473  1  0.24127400  0.75712200  0.52579600  1
  C  474  1  0.27403800  0.75076800  0.52141600  1
  C  475  1  0.29355100  0.76842600  0.50248300  1
  C  476  1  0.28044600  0.79354700  0.48769000  1
  C  477  1  0.24730600  0.79971200  0.49127100  1
  C  479  1  0.22829700  0.78146300  0.51009000  1
  C  489  1  0.74133500  0.53574200  0.23260600  1
  C  490  1  0.77411600  0.54204000  0.23693700  1
  C  491  1  0.79359100  0.52440700  0.25592100  1
  C  492  1  0.78041600  0.49937900  0.27081200  1
  C  493  1  0.74725500  0.49328100  0.26729100  1
  C  495  1  0.72828500  0.51150800  0.24842100  1
  C  505  1  0.49445900  0.99969600  0.48820600  1
  C  506  1  0.52597800  0.99134600  0.49602200  1
  C  507  1  0.54568500  0.00964200  0.51412500  1
  C  508  1  0.53379600  0.03705000  0.52521300  1
  C  509  1  0.50246700  0.04612500  0.51702700  1
  C  511  1  0.48334300  0.02741300  0.49876200  1
  C  521  1  0.99443700  0.79336500  0.77002100  1
  C  522  1  0.02591000  0.80179300  0.76212300  1
  C  523  1  0.04565800  0.78350400  0.74404700  1
  C  524  1  0.03387200  0.75601400  0.73306000  1
  C  525  1  0.00258100  0.74687300  0.74131600  1
  C  527  1  0.98341700  0.76557900  0.75955900  1
  C  537  1  0.28123000  0.29344600  0.98834200  1
  C  538  1  0.24973500  0.30184700  0.99618900  1
  C  539  1  0.23000000  0.28356400  0.01427800  1
  C  540  1  0.24183100  0.25611900  0.02532500  1
  C  541  1  0.27313900  0.24699600  0.01710900  1
  C  543  1  0.29228800  0.26569300  0.99885300  1
  C  553  1  0.03458000  0.25664200  0.23300200  1
  C  554  1  0.00180800  0.25030800  0.23737300  1
  C  555  1  0.98230200  0.26798100  0.25629700  1
  C  556  1  0.99542900  0.29308900  0.27109000  1
  C  557  1  0.02857300  0.29923900  0.26751800  1
  C  559  1  0.04757300  0.28097600  0.24870800  1
  C  569  1  0.74458700  0.75434900  0.02509900  1
  C  570  1  0.77506500  0.74555800  0.01488900  1
  C  571  1  0.79360500  0.76362700  0.99548300  1
  C  572  1  0.78185600  0.79186300  0.98623400  1
  C  573  1  0.75114500  0.80093800  0.99612700  1
  C  575  1  0.73316700  0.78239300  0.01549100  1
  C  585  1  0.49461700  0.49953900  0.98839100  1
  C  586  1  0.52609700  0.49115100  0.99629100  1
  C  587  1  0.54587100  0.50953600  0.01424300  1
  C  588  1  0.53411000  0.53709000  0.02509400  1
  C  589  1  0.50280900  0.54619000  0.01682200  1
  C  591  1  0.48362100  0.52739100  0.99870200  1
  C  601  1  0.78114800  0.99962100  0.76997500  1
  C  602  1  0.74964600  0.99127500  0.76210100  1
  C  603  1  0.72988700  0.00968200  0.74415400  1
  C  604  1  0.74168600  0.03721200  0.73328000  1
  C  605  1  0.77300900  0.04627000  0.74152300  1
  C  607  1  0.79218300  0.02745100  0.75964100  1
  C  617  1  0.24471400  0.03845600  0.23320900  1
  C  618  1  0.27515400  0.04726900  0.24349600  1
  C  619  1  0.29363900  0.02922300  0.26296500  1
  C  620  1  0.28185200  0.00100500  0.27221800  1
  C  621  1  0.25118400  0.99190000  0.26224800  1
  C  623  1  0.23327000  0.01041700  0.24281000  1
  C  633  1  0.99383000  0.49950300  0.48794400  1
  C  634  1  0.02419100  0.49062300  0.49835300  1
  C  635  1  0.04259400  0.50863500  0.51791900  1
  C  636  1  0.03085200  0.53691200  0.52705300  1
  C  637  1  0.00030000  0.54612400  0.51685600  1
  C  639  1  0.98242200  0.52760300  0.49738200  1
  N  401  1  0.07258600  0.99881100  0.02900900  1
  N  402  1  0.98869600  0.07444100  0.02616000  1
  N  407  1  0.97802000  0.98134500  0.96959200  1
  N  408  1  0.04712500  0.05509000  0.04598300  1
  N  417  1  0.57235400  0.79430400  0.22923000  1
  N  418  1  0.48851500  0.71862300  0.23211600  1
  N  423  1  0.47783400  0.81167700  0.28874500  1
  N  424  1  0.54688200  0.73802500  0.21222600  1
  N  433  1  0.70308800  0.29426700  0.52902500  1
  N  434  1  0.78698700  0.21865200  0.52611400  1
  N  439  1  0.79755800  0.31171000  0.46944700  1
  N  440  1  0.72858400  0.23798300  0.54599000  1
  N  449  1  0.20304200  0.49875500  0.72934300  1
  N  450  1  0.28690900  0.57441700  0.73214000  1
  N  455  1  0.29760100  0.48136500  0.78878000  1
  N  456  1  0.22849800  0.55501500  0.71229100  1
  N  465  1  0.45230100  0.25348400  0.77421000  1
  N  466  1  0.53646000  0.32884300  0.77180600  1
  N  471  1  0.54719800  0.23551700  0.71546700  1
  N  472  1  0.47794200  0.30958700  0.79146400  1
  N  481  1  0.32620800  0.76144600  0.49793400  1
  N  482  1  0.23354000  0.82360300  0.47524500  1
  N  487  1  0.22159500  0.74018800  0.54237600  1
  N  488  1  0.29930400  0.80915300  0.46899300  1
  N  497  1  0.82627600  0.53131500  0.26041400  1
  N  498  1  0.73344200  0.46947600  0.28341100  1
  N  503  1  0.72171200  0.55267800  0.21599000  1
  N  504  1  0.79925300  0.48377800  0.28951500  1
  N  513  1  0.57725800  0.00105200  0.52157200  1
  N  514  1  0.49123100  0.07417200  0.52681700  1
  N  519  1  0.47517800  0.98364800  0.47029800  1
  N  520  1  0.55339300  0.05472700  0.54108700  1
  N  529  1  0.07718300  0.79218100  0.73652500  1
  N  530  1  0.99142400  0.71876700  0.73162400  1
  N  535  1  0.97514600  0.80938900  0.78795700  1
  N  536  1  0.05352400  0.73835600  0.71719600  1
  N  545  1  0.19844800  0.29220100  0.02174800  1
  N  546  1  0.28431700  0.21891500  0.02685800  1
  N  551  1  0.30051100  0.30946500  0.97040600  1
  N  552  1  0.22220800  0.23845900  0.04119600  1
  N  561  1  0.94963200  0.26104000  0.26082400  1
  N  562  1  0.04234300  0.32313600  0.28353500  1
  N  567  1  0.05424400  0.23973000  0.21639000  1
  N  568  1  0.97656400  0.30872400  0.28974700  1
  N  577  1  0.82338300  0.75356800  0.98441100  1
  N  578  1  0.73902000  0.82873800  0.98645400  1
  N  583  1  0.72839500  0.73553900  0.04301900  1
  N  584  1  0.79763900  0.80956900  0.96695000  1
  N  593  1  0.57739900  0.50088500  0.02177800  1
  N  594  1  0.49166400  0.57434600  0.02638900  1
  N  599  1  0.47531200  0.48341000  0.97057100  1
  N  600  1  0.55377600  0.55479400  0.04090000  1
  N  609  1  0.69833700  0.00107600  0.73664900  1
  N  610  1  0.78419200  0.07440400  0.73193300  1
  N  615  1  0.80043600  0.98347400  0.78779400  1
  N  616  1  0.72203000  0.05494200  0.71749400  1
  N  625  1  0.32340100  0.03927900  0.27408300  1
  N  626  1  0.23904300  0.96410600  0.27191300  1
  N  631  1  0.22855600  0.05727900  0.21528100  1
  N  632  1  0.29756500  0.98334100  0.29157800  1
  N  641  1  0.07228900  0.49854000  0.52914700  1
  N  642  1  0.98831800  0.57408300  0.52621200  1
  N  647  1  0.97789600  0.48104000  0.46949000  1
  N  648  1  0.04671000  0.55475400  0.54616600  1
  O  403  1  0.09222200  0.99407700  0.00837600  1
  O  404  1  0.98401400  0.09150100  0.00443200  1
  O  405  1  0.06943000  0.97536500  0.04396500  1
  O  406  1  0.96294700  0.07165600  0.04030500  1
  O  419  1  0.59200800  0.79901600  0.24985200  1
  O  420  1  0.48388600  0.70155000  0.25384700  1
  O  421  1  0.56918400  0.81776300  0.21429900  1
  O  422  1  0.46274200  0.72138900  0.21800700  1
  O  435  1  0.68342400  0.29898900  0.50841200  1
  O  436  1  0.79164000  0.20158500  0.50438600  1
  O  437  1  0.70625600  0.31771700  0.54397200  1
  O  438  1  0.81274800  0.22143500  0.54023700  1
  O  451  1  0.18340200  0.49404000  0.74997600  1
  O  452  1  0.29158300  0.59149300  0.75385900  1
  O  453  1  0.20620900  0.47529800  0.71441000  1
  O  454  1  0.31266500  0.57162200  0.71800800  1
  O  467  1  0.43270600  0.24872600  0.75354800  1
  O  468  1  0.54145000  0.34596400  0.75018500  1
  O  469  1  0.45540400  0.23006500  0.78921900  1
  O  470  1  0.56207300  0.32582500  0.78611900  1
  O  483  1  0.32946400  0.73610200  0.48649900  1
  O  484  1  0.21214600  0.81475000  0.45772100  1
  O  485  1  0.34162500  0.76221000  0.52192800  1
  O  486  1  0.22170400  0.84268000  0.49247500  1
  O  499  1  0.82962100  0.55669100  0.27175500  1
  O  500  1  0.71208800  0.47843900  0.30092100  1
  O  501  1  0.84166200  0.53042300  0.23641200  1
  O  502  1  0.72153500  0.45036800  0.26625600  1
  O  515  1  0.59428000  0.99802900  0.49872600  1
  O  516  1  0.46655800  0.07154700  0.54255200  1
  O  517  1  0.57750900  0.97702000  0.53587100  1
  O  518  1  0.48503600  0.09103700  0.50526700  1
  O  531  1  0.09423300  0.79533200  0.75933600  1
  O  532  1  0.96671800  0.72127300  0.71591600  1
  O  533  1  0.07731300  0.81617200  0.72215200  1
  O  534  1  0.98531800  0.70194400  0.75323000  1
  O  547  1  0.18142000  0.29528200  0.99891300  1
  O  548  1  0.30900400  0.22147300  0.04258600  1
  O  549  1  0.19825100  0.31621700  0.03607700  1
  O  550  1  0.29046700  0.20206500  0.00528700  1
  O  563  1  0.94633000  0.23570000  0.27225400  1
  O  564  1  0.06373600  0.31428800  0.30106100  1
  O  565  1  0.93423300  0.26183200  0.23682300  1
  O  566  1  0.05418600  0.34220200  0.26629600  1
  O  579  1  0.84294900  0.74890800  0.00512000  1
  O  580  1  0.73393700  0.84590300  0.00802200  1
  O  581  1  0.82037500  0.73010400  0.96945400  1
  O  582  1  0.71345100  0.82562200  0.97210000  1
  O  595  1  0.59441800  0.49761400  0.99896400  1
  O  596  1  0.46697200  0.57191500  0.04213200  1
  O  597  1  0.57753100  0.47696300  0.03626700  1
  O  598  1  0.48553100  0.59106200  0.00471000  1
  O  611  1  0.68133000  0.99784500  0.75947700  1
  O  612  1  0.80886700  0.07193200  0.71617400  1
  O  613  1  0.69814800  0.97714700  0.72217200  1
  O  614  1  0.79036800  0.09112500  0.75359900  1
  O  627  1  0.34300700  0.04390700  0.25340400  1
  O  628  1  0.23403400  0.94692000  0.25035000  1
  O  629  1  0.32036900  0.06276700  0.28899900  1
  O  630  1  0.21342600  0.96722800  0.28619700  1
  O  643  1  0.09197900  0.49387000  0.50854300  1
  O  644  1  0.98368700  0.59116000  0.50448400  1
  O  645  1  0.06914400  0.47506900  0.54406500  1
  O  646  1  0.96253600  0.57127900  0.54029700  1
