# generated using pymatgen
data_H19C30(N2O)2
_symmetry_space_group_name_H-M   'P 1'
_cell_length_a   51.48810000
_cell_length_b   51.48810000
_cell_length_c   51.48810000
_cell_angle_alpha   90.00000000
_cell_angle_beta   90.00000000
_cell_angle_gamma   90.00000000
_symmetry_Int_Tables_number   1
_chemical_formula_structural   H19C30(N2O)2
_chemical_formula_sum   'H228 C360 N48 O24'
_cell_volume   136496.21155206
_cell_formula_units_Z   12
loop_
 _symmetry_equiv_pos_site_id
 _symmetry_equiv_pos_as_xyz
  1  'x, y, z'
loop_
 _atom_site_type_symbol
 _atom_site_label
 _atom_site_symmetry_multiplicity
 _atom_site_fract_x
 _atom_site_fract_y
 _atom_site_fract_z
 _atom_site_occupancy
  H  49  1  0.96697500  0.49966100  0.36160000  1
  H  50  1  0.96603100  0.49992100  0.40807500  1
  H  51  1  0.04685000  0.51801900  0.36303300  1
  H  52  1  0.04593000  0.51813300  0.40963200  1
  H  53  1  0.00485300  0.56115700  0.42238700  1
  H  54  1  0.00437900  0.59604200  0.45696400  1
  H  55  1  0.00438300  0.52554100  0.49321500  1
  H  56  1  0.00487700  0.49350200  0.52554100  1
  H  57  1  0.00649000  0.45644300  0.42206000  1
  H  58  1  0.00648300  0.42174600  0.45706300  1
  H  59  1  0.96694300  0.40777400  0.51809200  1
  H  60  1  0.96829700  0.36131100  0.51784000  1
  H  61  1  0.04704200  0.41022700  0.50088800  1
  H  62  1  0.04836800  0.36364700  0.50045700  1
  H  63  1  0.00580700  0.42299300  0.56178000  1
  H  64  1  0.00436200  0.45784000  0.59634300  1
  H  65  1  0.00321800  0.59730300  0.56169500  1
  H  66  1  0.00369400  0.56259800  0.59671400  1
  H  67  1  0.04401900  0.50136400  0.60991500  1
  H  68  1  0.04401200  0.50110600  0.65639000  1
  H  69  1  0.96394100  0.51883600  0.60996000  1
  H  70  1  0.96396600  0.51872900  0.65658100  1
  H  71  1  0.96365100  0.60982200  0.49987500  1
  H  72  1  0.96364200  0.65642700  0.49881000  1
  H  73  1  0.04361600  0.65673200  0.51678700  1
  H  74  1  0.04364400  0.61028300  0.51771400  1
  H  127  1  0.36169300  0.96697100  0.50025100  1
  H  128  1  0.40816600  0.96596300  0.50053500  1
  H  129  1  0.36324300  0.04709400  0.51749200  1
  H  130  1  0.40984000  0.04611200  0.51760700  1
  H  131  1  0.42258300  0.00598900  0.56120100  1
  H  132  1  0.45717700  0.00648300  0.59605600  1
  H  133  1  0.49338800  0.00501200  0.52554600  1
  H  134  1  0.52567500  0.00399100  0.49348100  1
  H  135  1  0.42216700  0.00527100  0.45648200  1
  H  136  1  0.45712500  0.00414800  0.42177300  1
  H  137  1  0.51853900  0.96394900  0.40895500  1
  H  138  1  0.51866700  0.96401500  0.36233000  1
  H  139  1  0.50111000  0.04403900  0.40897200  1
  H  140  1  0.50109200  0.04407100  0.36249300  1
  H  141  1  0.56184400  0.00372900  0.42293100  1
  H  142  1  0.59645200  0.00330500  0.45777400  1
  H  143  1  0.56191800  0.00517900  0.59726200  1
  H  144  1  0.59691100  0.00461600  0.56252400  1
  H  145  1  0.61005900  0.04378800  0.50077400  1
  H  146  1  0.65653400  0.04378400  0.50052100  1
  H  147  1  0.61011200  0.96394500  0.51928700  1
  H  148  1  0.65673200  0.96397200  0.51917200  1
  H  149  1  0.50011200  0.96641500  0.61090000  1
  H  150  1  0.49957200  0.96751400  0.65738100  1
  H  151  1  0.51813100  0.04733400  0.65579200  1
  H  152  1  0.51852000  0.04626600  0.60919900  1
  H  205  1  0.50026500  0.36170500  0.96686800  1
  H  206  1  0.50052900  0.40817600  0.96587700  1
  H  207  1  0.51767900  0.36322900  0.04695400  1
  H  208  1  0.51777800  0.40982700  0.04598900  1
  H  209  1  0.56127500  0.42261600  0.00571700  1
  H  210  1  0.59611000  0.45723400  0.00614500  1
  H  211  1  0.52557200  0.49339900  0.00496600  1
  H  212  1  0.49348700  0.52566900  0.00397700  1
  H  213  1  0.45655400  0.42213800  0.00528400  1
  H  214  1  0.42182200  0.45707400  0.00419700  1
  H  215  1  0.40897000  0.51846700  0.96393100  1
  H  216  1  0.36234600  0.51859900  0.96399700  1
  H  217  1  0.40898800  0.50108100  0.04403000  1
  H  218  1  0.36250900  0.50106300  0.04406200  1
  H  219  1  0.42291700  0.56179600  0.00370300  1
  H  220  1  0.45773900  0.59642300  0.00327000  1
  H  221  1  0.59724800  0.56197400  0.00505300  1
  H  222  1  0.56248900  0.59694700  0.00457400  1
  H  223  1  0.50075200  0.61001600  0.04378800  1
  H  224  1  0.50050200  0.65649100  0.04383800  1
  H  225  1  0.51923600  0.61016000  0.96393900  1
  H  226  1  0.51912200  0.65678100  0.96402000  1
  H  227  1  0.61081700  0.50033900  0.96609500  1
  H  228  1  0.65728600  0.49978700  0.96707200  1
  H  229  1  0.65590900  0.51800100  0.04698000  1
  H  230  1  0.60931300  0.51839500  0.04602800  1
  H  283  1  0.46314800  0.99875900  0.86263600  1
  H  284  1  0.46329500  0.99956800  0.90924100  1
  H  285  1  0.54309800  0.01681700  0.86217600  1
  H  286  1  0.54327500  0.01747200  0.90865400  1
  H  287  1  0.50335700  0.06097600  0.92237600  1
  H  288  1  0.50384600  0.09593700  0.95686200  1
  H  289  1  0.50361300  0.02552300  0.99328900  1
  H  290  1  0.50403700  0.99356100  0.02569000  1
  H  291  1  0.50377800  0.95624800  0.92228500  1
  H  292  1  0.50366400  0.92163600  0.95736500  1
  H  293  1  0.46400600  0.90898300  0.01899300  1
  H  294  1  0.46408600  0.86236200  0.01915600  1
  H  295  1  0.54400700  0.90901900  0.00115900  1
  H  296  1  0.54405600  0.86253300  0.00117900  1
  H  297  1  0.50401500  0.92312600  0.06208200  1
  H  298  1  0.50359200  0.95807500  0.09658100  1
  H  299  1  0.50373600  0.09746100  0.06159500  1
  H  300  1  0.50418200  0.06283800  0.09669600  1
  H  301  1  0.54387100  0.00123500  0.10998600  1
  H  302  1  0.54391600  0.00099600  0.15646800  1
  H  303  1  0.46396100  0.01946000  0.11012300  1
  H  304  1  0.46403900  0.01936900  0.15673900  1
  H  305  1  0.46361400  0.10989400  0.99997100  1
  H  306  1  0.46365500  0.15649300  0.99884400  1
  H  307  1  0.54373100  0.15672500  0.01636200  1
  H  308  1  0.54371000  0.11027000  0.01734300  1
  H  361  1  0.86249000  0.46354400  0.99888100  1
  H  362  1  0.90909300  0.46349300  0.99969300  1
  H  363  1  0.86239300  0.54365600  0.01624400  1
  H  364  1  0.90885600  0.54362600  0.01690800  1
  H  365  1  0.92235300  0.50362700  0.06074100  1
  H  366  1  0.95681500  0.50404600  0.09573200  1
  H  367  1  0.99329300  0.50360000  0.02534500  1
  H  368  1  0.02571500  0.50403100  0.99340400  1
  H  369  1  0.92233300  0.50384600  0.95602400  1
  H  370  1  0.95743600  0.50367000  0.92143200  1
  H  371  1  0.01906900  0.46401400  0.90882100  1
  H  372  1  0.01921800  0.46408400  0.86219900  1
  H  373  1  0.00123900  0.54401700  0.90884500  1
  H  374  1  0.00124500  0.54405400  0.86235600  1
  H  375  1  0.06215300  0.50402900  0.92299200  1
  H  376  1  0.09662800  0.50359800  0.95796500  1
  H  377  1  0.06155000  0.50370800  0.09732800  1
  H  378  1  0.09667500  0.50414000  0.06272800  1
  H  379  1  0.11000500  0.54386300  0.00114000  1
  H  380  1  0.15648600  0.54390800  0.00092800  1
  H  381  1  0.11013000  0.46395200  0.01935300  1
  H  382  1  0.15674700  0.46402900  0.01928900  1
  H  383  1  0.99986600  0.46365300  0.10971500  1
  H  384  1  0.99872400  0.46368600  0.15631300  1
  H  385  1  0.01636200  0.54373500  0.15657000  1
  H  386  1  0.01735600  0.54372400  0.11011500  1
  H  439  1  0.99997800  0.86160500  0.46684200  1
  H  440  1  0.00024600  0.90807200  0.46574800  1
  H  441  1  0.01782600  0.86329800  0.54682900  1
  H  442  1  0.01793600  0.90989500  0.54575900  1
  H  443  1  0.06120200  0.92252700  0.50473200  1
  H  444  1  0.09608600  0.95711000  0.50447900  1
  H  445  1  0.02557900  0.99335300  0.50439400  1
  H  446  1  0.99353600  0.02566300  0.50484500  1
  H  447  1  0.95647900  0.92217400  0.50518500  1
  H  448  1  0.92178700  0.95715700  0.50431100  1
  H  449  1  0.90913400  0.01877900  0.46421800  1
  H  450  1  0.86250600  0.01890400  0.46414200  1
  H  451  1  0.90890700  0.00097500  0.54422500  1
  H  452  1  0.86242800  0.00096500  0.54411800  1
  H  453  1  0.92301100  0.06187700  0.50477500  1
  H  454  1  0.95788500  0.09646800  0.50522700  1
  H  455  1  0.09734100  0.06184300  0.50455100  1
  H  456  1  0.06264300  0.09683700  0.50585300  1
  H  457  1  0.00070700  0.10867700  0.54660600  1
  H  458  1  0.99997800  0.15525400  0.54802000  1
  H  459  1  0.01892600  0.11140600  0.46674300  1
  H  460  1  0.01836400  0.15786000  0.46818400  1
  H  461  1  0.10976700  0.00032200  0.46383500  1
  H  462  1  0.15637200  0.99921700  0.46371900  1
  H  463  1  0.15685900  0.01653100  0.54383800  1
  H  464  1  0.11041300  0.01749400  0.54397400  1
  H  475  1  0.03676400  0.53971900  0.24482500  1
  H  477  1  0.97296400  0.47712600  0.27384800  1
  H  479  1  0.98445400  0.46237700  0.22245700  1
  H  480  1  0.05003200  0.52951400  0.29690200  1
  H  482  1  0.97767800  0.49318200  0.31754700  1
  H  484  1  0.02162500  0.53409000  0.20091000  1
  H  491  1  0.97726400  0.53987200  0.77498700  1
  H  493  1  0.04002100  0.47726400  0.74378300  1
  H  495  1  0.05455200  0.48927200  0.79618200  1
  H  496  1  0.98921100  0.55438000  0.72254900  1
  H  498  1  0.03337900  0.49238900  0.70021800  1
  H  500  1  0.99221000  0.53315200  0.81857100  1
  H  507  1  0.24502900  0.03703500  0.53970300  1
  H  509  1  0.27399500  0.97315500  0.47716400  1
  H  511  1  0.22261600  0.98472200  0.46237700  1
  H  512  1  0.29712500  0.05021600  0.52955100  1
  H  514  1  0.31768500  0.97775400  0.49336200  1
  H  516  1  0.20111400  0.02193500  0.53407700  1
  H  523  1  0.77510700  0.97705800  0.53982900  1
  H  525  1  0.74400100  0.03981900  0.47718000  1
  H  527  1  0.79640700  0.05431000  0.48923100  1
  H  528  1  0.72268300  0.98904400  0.55430700  1
  H  530  1  0.70041000  0.03315500  0.49218200  1
  H  532  1  0.81870000  0.99198400  0.53315000  1
  H  539  1  0.53975000  0.24497100  0.03683100  1
  H  541  1  0.47720900  0.27402800  0.97299500  1
  H  543  1  0.46239800  0.22265300  0.98451300  1
  H  544  1  0.52960400  0.29706300  0.05006800  1
  H  546  1  0.49337400  0.31770600  0.97765700  1
  H  548  1  0.53407300  0.20105600  0.02172600  1
  H  555  1  0.53988600  0.77513000  0.97729300  1
  H  557  1  0.47718200  0.74397200  0.03997400  1
  H  559  1  0.48926800  0.79636200  0.05454000  1
  H  560  1  0.55431800  0.72267200  0.98921100  1
  H  562  1  0.49217200  0.70038300  0.03326600  1
  H  564  1  0.53325300  0.81871300  0.99233600  1
  H  571  1  0.53476200  0.04121600  0.77415100  1
  H  573  1  0.48037100  0.97025300  0.74519900  1
  H  575  1  0.46532500  0.97883400  0.79679500  1
  H  576  1  0.54977700  0.03079700  0.72197800  1
  H  578  1  0.49168400  0.97899100  0.70117000  1
  H  580  1  0.53264100  0.02365300  0.81795200  1
  H  587  1  0.53991500  0.97740000  0.24392000  1
  H  589  1  0.47713500  0.03999200  0.27511000  1
  H  591  1  0.48915800  0.05456100  0.22271200  1
  H  592  1  0.55436300  0.98936400  0.29637500  1
  H  594  1  0.49215400  0.03330400  0.31869500  1
  H  596  1  0.53329000  0.99250900  0.20035100  1
  H  603  1  0.03862600  0.24607200  0.47486100  1
  H  605  1  0.97485800  0.27301300  0.53841400  1
  H  607  1  0.98663900  0.22119700  0.55161100  1
  H  608  1  0.05171200  0.29789200  0.48653400  1
  H  610  1  0.97911100  0.31713700  0.52319800  1
  H  612  1  0.02385200  0.20193000  0.47932400  1
  H  619  1  0.97710700  0.77395700  0.47309200  1
  H  621  1  0.03965200  0.74498900  0.53696300  1
  H  623  1  0.02951100  0.79710400  0.55012700  1
  H  624  1  0.96230400  0.72259400  0.48468700  1
  H  626  1  0.03397800  0.70105900  0.52191700  1
  H  628  1  0.99321800  0.81763900  0.47771800  1
  H  635  1  0.24394900  0.53990300  0.97736700  1
  H  637  1  0.27511200  0.47712400  0.03997400  1
  H  639  1  0.22270600  0.48915400  0.05452300  1
  H  640  1  0.29640600  0.55434500  0.98935600  1
  H  642  1  0.31869900  0.49216200  0.03331500  1
  H  644  1  0.20037400  0.53328800  0.99246800  1
  H  651  1  0.77411600  0.53973400  0.03681300  1
  H  653  1  0.74503400  0.47711400  0.97306500  1
  H  655  1  0.79642800  0.46234200  0.98453400  1
  H  656  1  0.72204400  0.52960400  0.05010500  1
  H  658  1  0.70136600  0.49338000  0.97767600  1
  H  660  1  0.81802000  0.53415600  0.02149000  1
  C  1  1  0.00470400  0.55752700  0.44189200  1
  C  2  1  0.00438500  0.57657200  0.46077200  1
  C  3  1  0.00409200  0.56453000  0.48510000  1
  C  5  1  0.00491000  0.53331100  0.45415500  1
  C  6  1  0.00538000  0.50892300  0.44105700  1
  C  7  1  0.00556600  0.48438400  0.45374200  1
  C  9  1  0.00593700  0.45367400  0.48472900  1
  C  10  1  0.00621900  0.44127700  0.46059800  1
  C  11  1  0.00616400  0.46014900  0.44156000  1
  C  12  1  0.00600500  0.44120100  0.50938200  1
  C  13  1  0.00537000  0.45450900  0.53364900  1
  C  15  1  0.00449600  0.48572200  0.56459600  1
  C  16  1  0.00461200  0.46149300  0.57684400  1
  C  17  1  0.00537400  0.44245900  0.55797000  1
  C  18  1  0.00401800  0.51010600  0.57771200  1
  C  19  1  0.00379900  0.53465300  0.56503100  1
  C  21  1  0.00374600  0.56537500  0.53403600  1
  C  22  1  0.00343900  0.57776800  0.55816800  1
  C  23  1  0.00366300  0.55889400  0.57721300  1
  C  24  1  0.00375800  0.57784200  0.50938000  1
  C  25  1  0.00362000  0.60565000  0.50904000  1
  C  26  1  0.02661900  0.61982500  0.51390900  1
  C  27  1  0.02653800  0.64718800  0.51348200  1
  C  28  1  0.00346800  0.66118000  0.50810900  1
  C  29  1  0.98059900  0.64692200  0.50299800  1
  C  30  1  0.98058200  0.61955700  0.50360200  1
  C  31  1  0.00395000  0.50996600  0.60552400  1
  C  32  1  0.02698800  0.50486800  0.61956200  1
  C  33  1  0.02691900  0.50456900  0.64692400  1
  C  34  1  0.00381800  0.50940100  0.66105500  1
  C  35  1  0.98093700  0.51487400  0.64695700  1
  C  36  1  0.98090200  0.51496700  0.61958600  1
  C  37  1  0.00689800  0.41340600  0.50970200  1
  C  38  1  0.98426800  0.39865900  0.51461200  1
  C  39  1  0.98512400  0.37130100  0.51456700  1
  C  40  1  0.00861700  0.35790200  0.50952500  1
  C  41  1  0.03112400  0.37272300  0.50443300  1
  C  42  1  0.03036800  0.40007700  0.50467000  1
  C  43  1  0.00590200  0.50898000  0.41325500  1
  C  44  1  0.98320000  0.50365400  0.39876600  1
  C  45  1  0.02918700  0.51417100  0.39966900  1
  C  46  1  0.02970700  0.51406800  0.37230700  1
  C  47  1  0.00715700  0.50843400  0.35774500  1
  C  48  1  0.98382300  0.50336300  0.37140400  1
  C  79  1  0.44208600  0.00583800  0.55755800  1
  C  80  1  0.46097800  0.00605500  0.57658900  1
  C  81  1  0.48530000  0.00556200  0.56454000  1
  C  83  1  0.45433000  0.00552700  0.53333700  1
  C  84  1  0.44120900  0.00539700  0.50895800  1
  C  85  1  0.45387200  0.00492100  0.48441300  1
  C  87  1  0.48482800  0.00432100  0.45367700  1
  C  88  1  0.46068300  0.00436800  0.44130000  1
  C  89  1  0.44166700  0.00493900  0.46018200  1
  C  90  1  0.50946300  0.00396600  0.44117900  1
  C  91  1  0.53374800  0.00379700  0.45447600  1
  C  93  1  0.56472800  0.00383200  0.48567300  1
  C  94  1  0.57695300  0.00351700  0.46143700  1
  C  95  1  0.55805700  0.00370500  0.44240700  1
  C  96  1  0.57786000  0.00390300  0.51005400  1
  C  97  1  0.56520400  0.00428200  0.53461100  1
  C  99  1  0.53423400  0.00515400  0.56535600  1
  C  100  1  0.55837500  0.00499700  0.57773100  1
  C  101  1  0.57740500  0.00463200  0.55884200  1
  C  102  1  0.50958700  0.00560100  0.57783800  1
  C  103  1  0.50924200  0.00625900  0.60564100  1
  C  104  1  0.51440200  0.02957500  0.61918800  1
  C  105  1  0.51414800  0.03018400  0.64654700  1
  C  106  1  0.50838100  0.00769300  0.66114300  1
  C  107  1  0.50331600  0.98433000  0.64753400  1
  C  108  1  0.50377100  0.98361700  0.62017400  1
  C  109  1  0.60567400  0.00383500  0.50989600  1
  C  110  1  0.61970600  0.02680400  0.50449700  1
  C  111  1  0.64707200  0.02673400  0.50420000  1
  C  112  1  0.66120700  0.00370300  0.50934500  1
  C  113  1  0.64710700  0.98089000  0.51509900  1
  C  114  1  0.61973300  0.98085500  0.51519700  1
  C  115  1  0.50972000  0.00397100  0.41337100  1
  C  116  1  0.51477900  0.98092900  0.39932300  1
  C  117  1  0.51482000  0.98098700  0.37195000  1
  C  118  1  0.50940100  0.00387800  0.35784400  1
  C  119  1  0.50453000  0.02697500  0.37196500  1
  C  120  1  0.50470500  0.02702400  0.39932900  1
  C  121  1  0.41340600  0.00595200  0.50902400  1
  C  122  1  0.39888200  0.98319600  0.50402700  1
  C  123  1  0.39985300  0.02932700  0.51388700  1
  C  124  1  0.37249200  0.02988400  0.51378500  1
  C  125  1  0.35790200  0.00727700  0.50846300  1
  C  126  1  0.37152300  0.98385400  0.50372400  1
  C  157  1  0.55762000  0.44211800  0.00559900  1
  C  158  1  0.57663800  0.46102300  0.00578000  1
  C  159  1  0.56457100  0.48533700  0.00535600  1
  C  161  1  0.53338900  0.45434600  0.00537800  1
  C  162  1  0.50901800  0.44120900  0.00530400  1
  C  163  1  0.48446300  0.45386000  0.00487800  1
  C  165  1  0.45370900  0.48479700  0.00431500  1
  C  166  1  0.44134600  0.46064600  0.00439700  1
  C  167  1  0.46024200  0.44164200  0.00494800  1
  C  168  1  0.44119700  0.50942400  0.00395200  1
  C  169  1  0.45447800  0.53371700  0.00376900  1
  C  171  1  0.48565600  0.56471700  0.00379100  1
  C  172  1  0.46141100  0.57692700  0.00348200  1
  C  173  1  0.44239500  0.55802000  0.00367200  1
  C  174  1  0.51002800  0.57786500  0.00386900  1
  C  175  1  0.53459500  0.56522400  0.00422200  1
  C  177  1  0.56535800  0.53427100  0.00501100  1
  C  178  1  0.57772000  0.55842200  0.00488200  1
  C  179  1  0.55881600  0.57743800  0.00456400  1
  C  180  1  0.57785600  0.50963200  0.00540300  1
  C  181  1  0.60565800  0.50930400  0.00598900  1
  C  182  1  0.61926300  0.51436100  0.02929300  1
  C  183  1  0.64662300  0.51410100  0.02983200  1
  C  184  1  0.66117000  0.50845300  0.00727500  1
  C  185  1  0.64749300  0.50349300  0.98392600  1
  C  186  1  0.62013300  0.50393600  0.98328700  1
  C  187  1  0.50985400  0.60567800  0.00382600  1
  C  188  1  0.50446400  0.61968500  0.02681400  1
  C  189  1  0.50416300  0.64704800  0.02677400  1
  C  190  1  0.50929800  0.66121100  0.00375600  1
  C  191  1  0.51504900  0.64713600  0.98092700  1
  C  192  1  0.51514200  0.61976400  0.98085900  1
  C  193  1  0.41338700  0.50966700  0.00395800  1
  C  194  1  0.39933900  0.51471700  0.98091600  1
  C  195  1  0.37196500  0.51475600  0.98097200  1
  C  196  1  0.35785900  0.50935100  0.00386500  1
  C  197  1  0.37198100  0.50448100  0.02696300  1
  C  198  1  0.39934500  0.50466200  0.02701300  1
  C  199  1  0.50910200  0.41340600  0.00585000  1
  C  200  1  0.50406200  0.39888800  0.98309900  1
  C  201  1  0.51402300  0.39984600  0.02920800  1
  C  202  1  0.51392400  0.37248400  0.02975600  1
  C  203  1  0.50856200  0.35789800  0.00715700  1
  C  204  1  0.50377100  0.37152800  0.98374700  1
  C  235  1  0.50350800  0.05738600  0.94188700  1
  C  236  1  0.50373800  0.07647500  0.96072100  1
  C  237  1  0.50364400  0.06449400  0.98508000  1
  C  239  1  0.50361100  0.03319800  0.95420500  1
  C  240  1  0.50348300  0.00877800  0.94115900  1
  C  241  1  0.50358600  0.98427000  0.95390600  1
  C  243  1  0.50387700  0.95363000  0.98496300  1
  C  244  1  0.50372800  0.94117600  0.96085900  1
  C  245  1  0.50373400  0.96000200  0.94177700  1
  C  246  1  0.50393400  0.94121300  0.00964300  1
  C  247  1  0.50389700  0.95458300  0.03388800  1
  C  249  1  0.50392600  0.98587800  0.06476900  1
  C  250  1  0.50377100  0.96167800  0.07707100  1
  C  251  1  0.50396100  0.94259000  0.05823600  1
  C  252  1  0.50388300  0.01030000  0.07782600  1
  C  253  1  0.50385000  0.03481700  0.06508400  1
  C  255  1  0.50382700  0.06546500  0.03401100  1
  C  256  1  0.50381300  0.07791800  0.05811400  1
  C  257  1  0.50401300  0.05908900  0.07720400  1
  C  258  1  0.50369900  0.07787100  0.00932400  1
  C  259  1  0.50363100  0.10567800  0.00891200  1
  C  260  1  0.52667700  0.11983100  0.01362100  1
  C  261  1  0.52662600  0.14719400  0.01316200  1
  C  262  1  0.50353800  0.16120800  0.00792200  1
  C  263  1  0.48062700  0.14697300  0.00294000  1
  C  264  1  0.48057900  0.11961000  0.00358900  1
  C  265  1  0.50388500  0.01022900  0.10564000  1
  C  266  1  0.52689000  0.00492100  0.11965200  1
  C  267  1  0.52685000  0.00463600  0.14701800  1
  C  268  1  0.50381100  0.00969500  0.16117400  1
  C  269  1  0.48096700  0.01537400  0.14709900  1
  C  270  1  0.48090300  0.01545500  0.11972700  1
  C  271  1  0.50398600  0.91340700  0.00998600  1
  C  272  1  0.48097700  0.89935500  0.01517400  1
  C  273  1  0.48103900  0.87198400  0.01522700  1
  C  274  1  0.50390800  0.85788300  0.00970900  1
  C  275  1  0.52697800  0.87200700  0.00470600  1
  C  276  1  0.52702100  0.89937100  0.00486900  1
  C  277  1  0.50326000  0.00879400  0.91335100  1
  C  278  1  0.48018100  0.00342400  0.89947900  1
  C  279  1  0.52621500  0.01376600  0.89913800  1
  C  280  1  0.52604600  0.01351100  0.87177000  1
  C  281  1  0.50293400  0.00820200  0.85782700  1
  C  282  1  0.48011700  0.00296000  0.87211400  1
  C  313  1  0.94186800  0.50370300  0.05717000  1
  C  314  1  0.96068800  0.50387700  0.07627400  1
  C  315  1  0.98505600  0.50370800  0.06431000  1
  C  317  1  0.95420500  0.50372800  0.03299200  1
  C  318  1  0.94117800  0.50362700  0.00856300  1
  C  319  1  0.95393900  0.50368700  0.98406200  1
  C  321  1  0.98501600  0.50391000  0.95344300  1
  C  322  1  0.96091900  0.50376300  0.94097400  1
  C  323  1  0.94182300  0.50380700  0.95978800  1
  C  324  1  0.00970300  0.50394300  0.94104400  1
  C  325  1  0.03393800  0.50389500  0.95443000  1
  C  327  1  0.06479900  0.50392000  0.98574600  1
  C  328  1  0.07711700  0.50376500  0.96155600  1
  C  329  1  0.05829300  0.50394900  0.94245400  1
  C  330  1  0.07783800  0.50387500  0.01017700  1
  C  331  1  0.06508100  0.50384100  0.03468600  1
  C  333  1  0.03398700  0.50383300  0.06531400  1
  C  334  1  0.05808200  0.50378800  0.07778300  1
  C  335  1  0.07718400  0.50399000  0.05896600  1
  C  336  1  0.00929100  0.50372800  0.07770400  1
  C  337  1  0.00886000  0.50366000  0.10551100  1
  C  338  1  0.01359900  0.52669600  0.11967100  1
  C  339  1  0.01313200  0.52663800  0.14703400  1
  C  340  1  0.00784600  0.50355700  0.16104100  1
  C  341  1  0.00284100  0.48065500  0.14679900  1
  C  342  1  0.00349400  0.48061200  0.11943600  1
  C  343  1  0.10565300  0.50387500  0.01012500  1
  C  344  1  0.11966800  0.52688300  0.00482800  1
  C  345  1  0.14703500  0.52684200  0.00456000  1
  C  346  1  0.16118800  0.50380400  0.00962100  1
  C  347  1  0.14710900  0.48095600  0.01528600  1
  C  348  1  0.11973700  0.48089300  0.01535400  1
  C  349  1  0.01006100  0.50399600  0.91323800  1
  C  350  1  0.01524800  0.48098300  0.89919000  1
  C  351  1  0.01529600  0.48104100  0.87181900  1
  C  352  1  0.00975300  0.50390300  0.85771600  1
  C  353  1  0.00478100  0.52698000  0.87183400  1
  C  354  1  0.00494300  0.52702800  0.89920000  1
  C  355  1  0.91337400  0.50352200  0.00855700  1
  C  356  1  0.89940400  0.48045800  0.00338100  1
  C  357  1  0.89926400  0.52658200  0.01332400  1
  C  358  1  0.87189800  0.52653700  0.01304300  1
  C  359  1  0.85784600  0.50345000  0.00790200  1
  C  360  1  0.87204000  0.48051500  0.00291300  1
  C  391  1  0.05757100  0.94203500  0.50465800  1
  C  392  1  0.07661400  0.96091700  0.50441500  1
  C  393  1  0.06456900  0.98524300  0.50420800  1
  C  395  1  0.03335500  0.95429200  0.50480400  1
  C  396  1  0.00896900  0.94118600  0.50505600  1
  C  397  1  0.98442700  0.95386300  0.50480200  1
  C  399  1  0.95370900  0.98484100  0.50444300  1
  C  400  1  0.94131800  0.96070300  0.50443500  1
  C  401  1  0.96018900  0.94167400  0.50490900  1
  C  402  1  0.94123300  0.00948700  0.50428300  1
  C  403  1  0.95454100  0.03376500  0.50449500  1
  C  405  1  0.98575600  0.06471900  0.50528600  1
  C  406  1  0.96152900  0.07696500  0.50510900  1
  C  407  1  0.94248700  0.05808200  0.50476300  1
  C  408  1  0.01014400  0.07783300  0.50566800  1
  C  409  1  0.03469300  0.06516200  0.50525600  1
  C  411  1  0.06541500  0.03417600  0.50450300  1
  C  412  1  0.07780800  0.05830900  0.50471300  1
  C  413  1  0.05893600  0.07734100  0.50543300  1
  C  414  1  0.07788200  0.00952400  0.50407900  1
  C  415  1  0.10568800  0.00917700  0.50388500  1
  C  416  1  0.11991700  0.01383000  0.52689600  1
  C  417  1  0.14727700  0.01337100  0.52675500  1
  C  418  1  0.16121600  0.00819200  0.50360900  1
  C  419  1  0.14690700  0.00327600  0.48072800  1
  C  420  1  0.11954100  0.00390700  0.48077300  1
  C  421  1  0.01003000  0.10563200  0.50656700  1
  C  422  1  0.00460100  0.11888400  0.52999400  1
  C  423  1  0.00419100  0.14623800  0.53080200  1
  C  424  1  0.00953000  0.16113900  0.50840300  1
  C  425  1  0.01490100  0.14781600  0.48494100  1
  C  426  1  0.01511800  0.12046200  0.48403000  1
  C  427  1  0.91342400  0.00976500  0.50421000  1
  C  428  1  0.89944800  0.01494400  0.48115200  1
  C  429  1  0.87207500  0.01498100  0.48112500  1
  C  430  1  0.85790100  0.00945000  0.50394700  1
  C  431  1  0.87195300  0.00448000  0.52706500  1
  C  432  1  0.89931400  0.00465500  0.52719900  1
  C  433  1  0.00903300  0.91338500  0.50566200  1
  C  434  1  0.00387000  0.89881900  0.48297000  1
  C  435  1  0.01408600  0.89987600  0.52902300  1
  C  436  1  0.01398500  0.87251600  0.52963300  1
  C  437  1  0.00849500  0.85788100  0.50709400  1
  C  438  1  0.00357900  0.87146300  0.48368100  1
  C  469  1  0.98687400  0.49012300  0.26803900  1
  C  470  1  0.99112400  0.49325000  0.24112400  1
  C  471  1  0.00936500  0.51175700  0.23186900  1
  C  472  1  0.02351500  0.52605500  0.25065400  1
  C  473  1  0.01962900  0.52256300  0.27757300  1
  C  474  1  0.00075300  0.50469500  0.28682000  1
  C  481  1  0.99444500  0.50166900  0.31311100  1
  C  483  1  0.01312700  0.51737400  0.20552100  1
  C  485  1  0.02657000  0.49052500  0.75006200  1
  C  486  1  0.02355300  0.49395300  0.77710000  1
  C  487  1  0.00527500  0.51209100  0.78701300  1
  C  488  1  0.99056100  0.52645500  0.76870900  1
  C  489  1  0.99396900  0.52341800  0.74167200  1
  C  490  1  0.01214500  0.50517700  0.73176300  1
  C  497  1  0.01729700  0.50182800  0.70525000  1
  C  499  1  0.00190700  0.51722800  0.81352900  1
  C  501  1  0.26819800  0.98708400  0.49014600  1
  C  502  1  0.24128700  0.99138000  0.49325000  1
  C  503  1  0.23205200  0.00964700  0.51174100  1
  C  504  1  0.25084600  0.02377400  0.52604600  1
  C  505  1  0.27776100  0.01984100  0.52257700  1
  C  506  1  0.28698700  0.00094000  0.50472600  1
  C  513  1  0.31326600  0.99457900  0.50174500  1
  C  515  1  0.20570800  0.01343600  0.51735800  1
  C  517  1  0.75025900  0.02636800  0.49045100  1
  C  518  1  0.77729000  0.02332900  0.49389800  1
  C  519  1  0.78717600  0.00504500  0.51204600  1
  C  520  1  0.76885100  0.99035500  0.52640300  1
  C  521  1  0.74181800  0.99378700  0.52334800  1
  C  522  1  0.73193200  0.01196100  0.50509300  1
  C  529  1  0.70542300  0.01712000  0.50170800  1
  C  531  1  0.81368700  0.00166000  0.51720300  1
  C  533  1  0.49019300  0.26821100  0.98691300  1
  C  534  1  0.49328900  0.24129500  0.99118000  1
  C  535  1  0.51178200  0.23203000  0.00942900  1
  C  536  1  0.52609400  0.25080500  0.02357500  1
  C  537  1  0.52263300  0.27772800  0.01967300  1
  C  538  1  0.50478200  0.28698100  0.00078600  1
  C  545  1  0.50180100  0.31327000  0.99445500  1
  C  547  1  0.51737200  0.20567900  0.01320600  1
  C  549  1  0.49046500  0.75023900  0.02653900  1
  C  550  1  0.49393100  0.77727300  0.02354200  1
  C  551  1  0.51209700  0.78717400  0.00528400  1
  C  552  1  0.52645200  0.76886100  0.99057400  1
  C  553  1  0.52337300  0.74182600  0.99396100  1
  C  554  1  0.50510300  0.73192600  0.01211400  1
  C  561  1  0.50170000  0.70541100  0.01723600  1
  C  563  1  0.51727100  0.81368500  0.00194200  1
  C  565  1  0.49171200  0.98556100  0.75096400  1
  C  566  1  0.49480300  0.98979300  0.77788000  1
  C  567  1  0.51091400  0.01018600  0.78708500  1
  C  568  1  0.52297700  0.02627400  0.76831100  1
  C  569  1  0.51988500  0.02203000  0.74139400  1
  C  570  1  0.50405400  0.00140200  0.73212000  1
  C  577  1  0.50083400  0.99537100  0.70574900  1
  C  579  1  0.51639100  0.01426500  0.81338800  1
  C  581  1  0.49043200  0.02657400  0.26883500  1
  C  582  1  0.49388100  0.02357100  0.24179900  1
  C  583  1  0.51207000  0.00534100  0.23189000  1
  C  584  1  0.52646100  0.99066000  0.25019600  1
  C  585  1  0.52340200  0.99405300  0.27723300  1
  C  586  1  0.50511300  0.01218100  0.28714000  1
  C  593  1  0.50173100  0.01730500  0.31365700  1
  C  595  1  0.51724400  0.00201000  0.20537700  1
  C  597  1  0.98877000  0.26763500  0.52523200  1
  C  598  1  0.99311300  0.24084000  0.52130900  1
  C  599  1  0.01133800  0.23219300  0.50248900  1
  C  600  1  0.02539600  0.25144400  0.48872800  1
  C  601  1  0.02141600  0.27823700  0.49301900  1
  C  602  1  0.00254000  0.28688000  0.51118200  1
  C  609  1  0.99605900  0.31303500  0.51490100  1
  C  611  1  0.01516300  0.20602800  0.49607600  1
  C  613  1  0.02599300  0.75080600  0.52370300  1
  C  614  1  0.02253500  0.77772500  0.51976500  1
  C  615  1  0.00468600  0.78694900  0.50086100  1
  C  616  1  0.99009400  0.76816000  0.48701500  1
  C  617  1  0.99319000  0.74125100  0.49132100  1
  C  618  1  0.01167800  0.73201200  0.50958700  1
  C  625  1  0.01727400  0.70566400  0.51339400  1
  C  627  1  0.00169300  0.81323000  0.49449900  1
  C  629  1  0.26884300  0.49042000  0.02655300  1
  C  630  1  0.24180700  0.49387100  0.02354000  1
  C  631  1  0.23190800  0.51206000  0.00530600  1
  C  632  1  0.25021900  0.52645000  0.99063000  1
  C  633  1  0.27725400  0.52338900  0.99403300  1
  C  634  1  0.28715400  0.50509900  0.01216600  1
  C  641  1  0.31366800  0.50171400  0.01730000  1
  C  643  1  0.20539500  0.51723800  0.00196500  1
  C  645  1  0.75085700  0.49010900  0.98697100  1
  C  646  1  0.77777400  0.49322100  0.99121300  1
  C  647  1  0.78704200  0.51173900  0.00943900  1
  C  648  1  0.76827400  0.52605700  0.02358400  1
  C  649  1  0.74135000  0.52257900  0.01970500  1
  C  650  1  0.73209100  0.50470700  0.00084300  1
  C  657  1  0.70580000  0.50172700  0.99451300  1
  C  659  1  0.81339200  0.51736800  0.01315100  1
  N  4  1  0.00444000  0.53865000  0.47998800  1
  N  8  1  0.00546900  0.47943900  0.47955500  1
  N  14  1  0.00483800  0.48038700  0.53876300  1
  N  20  1  0.00389800  0.53960400  0.53921600  1
  N  75  1  0.00238500  0.51015300  0.68696400  1
  N  76  1  0.01085500  0.33207700  0.50825900  1
  N  77  1  0.00923100  0.50907300  0.33188200  1
  N  78  1  0.00196500  0.68705900  0.50665500  1
  N  82  1  0.48016900  0.00526500  0.53866200  1
  N  86  1  0.47968200  0.00458500  0.47945000  1
  N  92  1  0.53888700  0.00389600  0.48035500  1
  N  98  1  0.53939200  0.00465300  0.53958300  1
  N  153  1  0.68711800  0.00227400  0.51010600  1
  N  154  1  0.51017200  0.00245500  0.33193700  1
  N  155  1  0.33204600  0.00939200  0.50906900  1
  N  156  1  0.50898500  0.00979200  0.68700500  1
  N  160  1  0.53869900  0.48018800  0.00513300  1
  N  164  1  0.47948500  0.47966600  0.00453900  1
  N  170  1  0.48035400  0.53887400  0.00386700  1
  N  176  1  0.53958300  0.53941400  0.00454100  1
  N  231  1  0.51007900  0.68712200  0.00236100  1
  N  232  1  0.33195200  0.51012700  0.00243900  1
  N  233  1  0.50917200  0.33203800  0.00926000  1
  N  234  1  0.68703400  0.50903800  0.00934900  1
  N  238  1  0.50366200  0.03860000  0.98002800  1
  N  242  1  0.50374500  0.97938700  0.97973100  1
  N  248  1  0.50395100  0.98047900  0.03894500  1
  N  254  1  0.50380600  0.03970600  0.03925500  1
  N  309  1  0.50238600  0.01041400  0.18708500  1
  N  310  1  0.50246700  0.83197600  0.01044300  1
  N  311  1  0.50142200  0.00672900  0.83195900  1
  N  312  1  0.50204800  0.18708800  0.00646900  1
  N  316  1  0.98002400  0.50370100  0.03841300  1
  N  320  1  0.97976800  0.50381300  0.97919700  1
  N  326  1  0.03897900  0.50394300  0.98032900  1
  N  332  1  0.03924800  0.50381700  0.03955800  1
  N  387  1  0.18709900  0.50237800  0.01035300  1
  N  388  1  0.01049800  0.50246400  0.83181100  1
  N  389  1  0.83196500  0.50197200  0.00653300  1
  N  390  1  0.00640500  0.50205400  0.18692100  1
  N  394  1  0.03869000  0.98012700  0.50444300  1
  N  398  1  0.97947800  0.97967500  0.50457300  1
  N  404  1  0.98042000  0.03888600  0.50481200  1
  N  410  1  0.03964400  0.03935100  0.50475700  1
  N  465  1  0.00818400  0.18696100  0.51068700  1
  N  466  1  0.83199600  0.01021600  0.50245400  1
  N  467  1  0.00910900  0.83202500  0.50924800  1
  N  468  1  0.18709200  0.00672700  0.50205000  1
  O  476  1  0.97584700  0.47928700  0.22466200  1
  O  478  1  0.03327200  0.53820000  0.29396900  1
  O  492  1  0.03868600  0.47913600  0.79294000  1
  O  494  1  0.97910900  0.53849900  0.72582200  1
  O  508  1  0.22480900  0.97611600  0.47928900  1
  O  510  1  0.29416900  0.03345500  0.53822700  1
  O  524  1  0.79315800  0.03844700  0.47909300  1
  O  526  1  0.72594800  0.97894200  0.53842500  1
  O  540  1  0.47931100  0.22484000  0.97590500  1
  O  542  1  0.53828500  0.29411400  0.03330900  1
  O  556  1  0.47912800  0.79312700  0.03867600  1
  O  558  1  0.53844700  0.72596600  0.97910400  1
  O  572  1  0.48324200  0.97266300  0.79438700  1
  O  574  1  0.53256600  0.03850100  0.72504100  1
  O  588  1  0.47904800  0.03867800  0.22594900  1
  O  590  1  0.53851300  0.97922200  0.29308300  1
  O  604  1  0.97792300  0.22393700  0.53483400  1
  O  606  1  0.03493300  0.29514600  0.47782300  1
  O  620  1  0.03819200  0.79412900  0.53337200  1
  O  622  1  0.97921200  0.72477700  0.47606900  1
  O  636  1  0.22594900  0.47904100  0.03864300  1
  O  638  1  0.29311200  0.53849700  0.97921000  1
  O  652  1  0.79422600  0.47925200  0.97592800  1
  O  654  1  0.72496300  0.53824800  0.03332200  1
