# generated using pymatgen
data_CoH22C28N4O5
_symmetry_space_group_name_H-M   'P 1'
_cell_length_a   13.50016000
_cell_length_b   17.28711000
_cell_length_c   23.61416000
_cell_angle_alpha   90.00000000
_cell_angle_beta   90.00000000
_cell_angle_gamma   90.00000000
_symmetry_Int_Tables_number   1
_chemical_formula_structural   CoH22C28N4O5
_chemical_formula_sum   'Co8 H176 C224 N32 O40'
_cell_volume   5511.04316524
_cell_formula_units_Z   8
loop_
 _symmetry_equiv_pos_site_id
 _symmetry_equiv_pos_as_xyz
  1  'x, y, z'
loop_
 _atom_site_type_symbol
 _atom_site_label
 _atom_site_symmetry_multiplicity
 _atom_site_fract_x
 _atom_site_fract_y
 _atom_site_fract_z
 _atom_site_occupancy
  Co  Co1  1  0.51954000  0.34977000  0.57629000  1.0
  Co  Co2  1  0.51954000  0.15023000  0.92371000  1.0
  Co  Co3  1  0.98045000  0.65023000  0.07629000  1.0
  Co  Co4  1  0.98045000  0.84977000  0.42371000  1.0
  Co  Co5  1  0.48045000  0.65023000  0.42371000  1.0
  Co  Co6  1  0.48045000  0.84977000  0.07629000  1.0
  Co  Co7  1  0.01954000  0.34977000  0.92371000  1.0
  Co  Co8  1  0.01955000  0.15023000  0.57629000  1.0
  H  H1  1  0.19451000  0.26399000  0.49483000  1.0
  H  H2  1  0.08372000  0.26591000  0.40968000  1.0
  H  H3  1  0.29733000  0.40477000  0.32045000  1.0
  H  H4  1  0.40723000  0.40387000  0.40617000  1.0
  H  H5  1  0.10490000  0.29681000  0.20922000  1.0
  H  H6  1  0.06825000  0.39276000  0.13211000  1.0
  H  H7  1  0.08157000  0.57758000  0.25319000  1.0
  H  H8  1  0.12532000  0.48186000  0.32998000  1.0
  H  H9  1  0.60066000  0.45322000  0.47860000  1.0
  H  H10  1  0.87987000  0.47085000  0.55938000  1.0
  H  H11  1  0.75233000  0.38274000  0.62675000  1.0
  H  H12  1  0.85192000  0.55207000  0.47212000  1.0
  H  H13  1  0.73030000  0.56175000  0.44648000  1.0
  H  H14  1  0.84661000  0.48604000  0.26438000  1.0
  H  H15  1  0.88317000  0.34582000  0.27456000  1.0
  H  H16  1  0.87209000  0.28398000  0.37010000  1.0
  H  H17  1  0.82755000  0.36234000  0.45361000  1.0
  H  H18  1  0.78918000  0.60077000  0.29887000  1.0
  H  H19  1  0.72519000  0.60661000  0.36437000  1.0
  H  H20  1  0.78935000  0.73400000  0.39870000  1.0
  H  H21  1  0.09703000  0.69305000  0.40290000  1.0
  H  H22  1  0.00088000  0.56526000  0.35342000  1.0
  H  H23  1  0.19451000  0.23601000  0.00517000  1.0
  H  H24  1  0.08372000  0.23409000  0.09032000  1.0
  H  H25  1  0.29733000  0.09523000  0.17955000  1.0
  H  H26  1  0.40723000  0.09613000  0.09383000  1.0
  H  H27  1  0.10490000  0.20319000  0.29078000  1.0
  H  H28  1  0.06825000  0.10724000  0.36789000  1.0
  H  H29  1  0.08157000  0.92242000  0.24681000  1.0
  H  H30  1  0.12532000  0.01814000  0.17002000  1.0
  H  H31  1  0.60066000  0.04678000  0.02140000  1.0
  H  H32  1  0.87987000  0.02915000  0.94062000  1.0
  H  H33  1  0.75233000  0.11726000  0.87325000  1.0
  H  H34  1  0.85192000  0.94793000  0.02788000  1.0
  H  H35  1  0.73030000  0.93825000  0.05352000  1.0
  H  H36  1  0.84661000  0.01396000  0.23562000  1.0
  H  H37  1  0.88317000  0.15418000  0.22544000  1.0
  H  H38  1  0.87209000  0.21602000  0.12990000  1.0
  H  H39  1  0.82755000  0.13766000  0.04639000  1.0
  H  H40  1  0.78918000  0.89923000  0.20113000  1.0
  H  H41  1  0.72519000  0.89339000  0.13563000  1.0
  H  H42  1  0.78935000  0.76600000  0.10130000  1.0
  H  H43  1  0.09703000  0.80695000  0.09710000  1.0
  H  H44  1  0.00088000  0.93474000  0.14658000  1.0
  H  H45  1  0.30548000  0.73601000  0.99483000  1.0
  H  H46  1  0.41628000  0.73410000  0.90968000  1.0
  H  H47  1  0.20267000  0.59523000  0.82045000  1.0
  H  H48  1  0.09277000  0.59613000  0.90617000  1.0
  H  H49  1  0.39509000  0.70319000  0.70922000  1.0
  H  H50  1  0.43174000  0.60724000  0.63211000  1.0
  H  H51  1  0.41842000  0.42242000  0.75319000  1.0
  H  H52  1  0.37467000  0.51814000  0.82998000  1.0
  H  H53  1  0.89934000  0.54678000  0.97860000  1.0
  H  H54  1  0.62013000  0.52915000  0.05938000  1.0
  H  H55  1  0.74766000  0.61726000  0.12675000  1.0
  H  H56  1  0.64807000  0.44793000  0.97211000  1.0
  H  H57  1  0.76969000  0.43825000  0.94648000  1.0
  H  H58  1  0.65339000  0.51396000  0.76438000  1.0
  H  H59  1  0.61682000  0.65418000  0.77456000  1.0
  H  H60  1  0.62790000  0.71602000  0.87010000  1.0
  H  H61  1  0.67245000  0.63766000  0.95361000  1.0
  H  H62  1  0.71082000  0.39923000  0.79887000  1.0
  H  H63  1  0.77481000  0.39339000  0.86437000  1.0
  H  H64  1  0.71065000  0.26600000  0.89870000  1.0
  H  H65  1  0.40296000  0.30695000  0.90290000  1.0
  H  H66  1  0.49912000  0.43474000  0.85342000  1.0
  H  H67  1  0.30548000  0.76399000  0.50516000  1.0
  H  H68  1  0.41628000  0.76591000  0.59032000  1.0
  H  H69  1  0.20267000  0.90477000  0.67955000  1.0
  H  H70  1  0.09277000  0.90387000  0.59383000  1.0
  H  H71  1  0.39509000  0.79681000  0.79078000  1.0
  H  H72  1  0.43174000  0.89276000  0.86788000  1.0
  H  H73  1  0.41842000  0.07758000  0.74681000  1.0
  H  H74  1  0.37467000  0.98186000  0.67002000  1.0
  H  H75  1  0.89934000  0.95322000  0.52140000  1.0
  H  H76  1  0.62013000  0.97085000  0.44062000  1.0
  H  H77  1  0.74766000  0.88274000  0.37325000  1.0
  H  H78  1  0.64807000  0.05207000  0.52788000  1.0
  H  H79  1  0.76969000  0.06175000  0.55352000  1.0
  H  H80  1  0.65339000  0.98604000  0.73562000  1.0
  H  H81  1  0.61682000  0.84582000  0.72544000  1.0
  H  H82  1  0.62790000  0.78398000  0.62990000  1.0
  H  H83  1  0.67245000  0.86234000  0.54639000  1.0
  H  H84  1  0.71082000  0.10077000  0.70113000  1.0
  H  H85  1  0.77481000  0.10661000  0.63563000  1.0
  H  H86  1  0.71065000  0.23400000  0.60130000  1.0
  H  H87  1  0.40296000  0.19305000  0.59710000  1.0
  H  H88  1  0.49912000  0.06526000  0.64658000  1.0
  H  H89  1  0.80548000  0.73601000  0.50517000  1.0
  H  H90  1  0.91628000  0.73410000  0.59032000  1.0
  H  H91  1  0.70267000  0.59523000  0.67955000  1.0
  H  H92  1  0.59277000  0.59613000  0.59383000  1.0
  H  H93  1  0.89509000  0.70319000  0.79078000  1.0
  H  H94  1  0.93174000  0.60724000  0.86788000  1.0
  H  H95  1  0.91842000  0.42242000  0.74681000  1.0
  H  H96  1  0.87467000  0.51814000  0.67002000  1.0
  H  H97  1  0.39934000  0.54678000  0.52140000  1.0
  H  H98  1  0.12013000  0.52915000  0.44062000  1.0
  H  H99  1  0.24766000  0.61726000  0.37325000  1.0
  H  H100  1  0.14808000  0.44793000  0.52788000  1.0
  H  H101  1  0.26969000  0.43825000  0.55352000  1.0
  H  H102  1  0.15339000  0.51396000  0.73562000  1.0
  H  H103  1  0.11683000  0.65418000  0.72544000  1.0
  H  H104  1  0.12790000  0.71602000  0.62990000  1.0
  H  H105  1  0.17245000  0.63766000  0.54639000  1.0
  H  H106  1  0.21082000  0.39923000  0.70113000  1.0
  H  H107  1  0.27481000  0.39339000  0.63563000  1.0
  H  H108  1  0.21065000  0.26600000  0.60130000  1.0
  H  H109  1  0.90296000  0.30695000  0.59710000  1.0
  H  H110  1  0.99911000  0.43474000  0.64658000  1.0
  H  H111  1  0.80548000  0.76399000  0.99483000  1.0
  H  H112  1  0.91628000  0.76591000  0.90968000  1.0
  H  H113  1  0.70267000  0.90477000  0.82045000  1.0
  H  H114  1  0.59277000  0.90387000  0.90617000  1.0
  H  H115  1  0.89509000  0.79681000  0.70922000  1.0
  H  H116  1  0.93174000  0.89276000  0.63211000  1.0
  H  H117  1  0.91842000  0.07758000  0.75319000  1.0
  H  H118  1  0.87467000  0.98186000  0.82998000  1.0
  H  H119  1  0.39934000  0.95322000  0.97860000  1.0
  H  H120  1  0.12013000  0.97085000  0.05938000  1.0
  H  H121  1  0.24766000  0.88274000  0.12675000  1.0
  H  H122  1  0.14808000  0.05207000  0.97211000  1.0
  H  H123  1  0.26969000  0.06175000  0.94648000  1.0
  H  H124  1  0.15339000  0.98604000  0.76438000  1.0
  H  H125  1  0.11683000  0.84582000  0.77456000  1.0
  H  H126  1  0.12790000  0.78398000  0.87010000  1.0
  H  H127  1  0.17245000  0.86234000  0.95361000  1.0
  H  H128  1  0.21082000  0.10077000  0.79887000  1.0
  H  H129  1  0.27481000  0.10661000  0.86437000  1.0
  H  H130  1  0.21065000  0.23400000  0.89870000  1.0
  H  H131  1  0.90296000  0.19305000  0.90290000  1.0
  H  H132  1  0.99911000  0.06526000  0.85342000  1.0
  H  H133  1  0.69451000  0.26399000  0.00516000  1.0
  H  H134  1  0.58372000  0.26591000  0.09032000  1.0
  H  H135  1  0.79732000  0.40477000  0.17955000  1.0
  H  H136  1  0.90723000  0.40387000  0.09383000  1.0
  H  H137  1  0.60490000  0.29681000  0.29078000  1.0
  H  H138  1  0.56825000  0.39276000  0.36788000  1.0
  H  H139  1  0.58157000  0.57758000  0.24681000  1.0
  H  H140  1  0.62532000  0.48186000  0.17002000  1.0
  H  H141  1  0.10066000  0.45322000  0.02140000  1.0
  H  H142  1  0.37987000  0.47085000  0.94062000  1.0
  H  H143  1  0.25233000  0.38274000  0.87325000  1.0
  H  H144  1  0.35192000  0.55207000  0.02788000  1.0
  H  H145  1  0.23030000  0.56175000  0.05352000  1.0
  H  H146  1  0.34661000  0.48604000  0.23562000  1.0
  H  H147  1  0.38317000  0.34582000  0.22544000  1.0
  H  H148  1  0.37209000  0.28398000  0.12990000  1.0
  H  H149  1  0.32755000  0.36234000  0.04639000  1.0
  H  H150  1  0.28918000  0.60077000  0.20113000  1.0
  H  H151  1  0.22519000  0.60661000  0.13563000  1.0
  H  H152  1  0.28935000  0.73400000  0.10130000  1.0
  H  H153  1  0.59703000  0.69305000  0.09710000  1.0
  H  H154  1  0.50088000  0.56526000  0.14658000  1.0
  H  H155  1  0.69451000  0.23601000  0.49483000  1.0
  H  H156  1  0.58372000  0.23409000  0.40968000  1.0
  H  H157  1  0.79733000  0.09523000  0.32045000  1.0
  H  H158  1  0.90723000  0.09613000  0.40617000  1.0
  H  H159  1  0.60490000  0.20319000  0.20922000  1.0
  H  H160  1  0.56825000  0.10724000  0.13211000  1.0
  H  H161  1  0.58157000  0.92242000  0.25319000  1.0
  H  H162  1  0.62532000  0.01814000  0.32998000  1.0
  H  H163  1  0.10066000  0.04678000  0.47860000  1.0
  H  H164  1  0.37987000  0.02915000  0.55938000  1.0
  H  H165  1  0.25233000  0.11726000  0.62675000  1.0
  H  H166  1  0.35192000  0.94793000  0.47211000  1.0
  H  H167  1  0.23030000  0.93825000  0.44648000  1.0
  H  H168  1  0.34661000  0.01396000  0.26438000  1.0
  H  H169  1  0.38317000  0.15418000  0.27456000  1.0
  H  H170  1  0.37209000  0.21602000  0.37010000  1.0
  H  H171  1  0.32755000  0.13766000  0.45361000  1.0
  H  H172  1  0.28918000  0.89923000  0.29887000  1.0
  H  H173  1  0.22519000  0.89339000  0.36437000  1.0
  H  H174  1  0.28935000  0.76600000  0.39870000  1.0
  H  H175  1  0.59703000  0.80695000  0.40290000  1.0
  H  H176  1  0.50088000  0.93474000  0.35342000  1.0
  C  C1  1  0.30828000  0.33270000  0.45519000  1.0
  C  C2  1  0.21649000  0.29471000  0.45663000  1.0
  C  C3  1  0.15454000  0.29582000  0.40954000  1.0
  C  C4  1  0.18495000  0.33523000  0.36079000  1.0
  C  C5  1  0.27538000  0.37463000  0.35882000  1.0
  C  C6  1  0.33677000  0.37320000  0.40623000  1.0
  C  C7  1  0.37547000  0.33101000  0.50504000  1.0
  C  C8  1  0.11479000  0.38452000  0.27342000  1.0
  C  C9  1  0.10009000  0.35833000  0.21810000  1.0
  C  C10  1  0.07920000  0.41151000  0.17567000  1.0
  C  C11  1  0.07152000  0.49060000  0.18826000  1.0
  C  C12  1  0.08824000  0.51609000  0.24394000  1.0
  C  C13  1  0.11141000  0.46333000  0.28670000  1.0
  C  C14  1  0.04492000  0.54533000  0.14212000  1.0
  C  C15  1  0.65785000  0.44423000  0.51027000  1.0
  C  C16  1  0.80357000  0.45341000  0.55361000  1.0
  C  C17  1  0.74016000  0.40933000  0.58584000  1.0
  C  C18  1  0.78703000  0.51905000  0.45774000  1.0
  C  C19  1  0.81203000  0.46908000  0.40691000  1.0
  C  C20  1  0.81592000  0.50342000  0.35274000  1.0
  C  C21  1  0.84208000  0.45846000  0.30577000  1.0
  C  C22  1  0.86270000  0.37975000  0.31154000  1.0
  C  C23  1  0.85736000  0.34546000  0.36495000  1.0
  C  C24  1  0.83225000  0.39000000  0.41228000  1.0
  C  C25  1  0.79478000  0.58826000  0.34432000  1.0
  C  C26  1  0.86149000  0.70860000  0.39140000  1.0
  C  C27  1  0.01988000  0.68266000  0.39338000  1.0
  C  C28  1  0.97384000  0.61974000  0.36965000  1.0
  C  C29  1  0.30828000  0.16730000  0.04481000  1.0
  C  C30  1  0.21649000  0.20529000  0.04337000  1.0
  C  C31  1  0.15454000  0.20418000  0.09046000  1.0
  C  C32  1  0.18495000  0.16477000  0.13921000  1.0
  C  C33  1  0.27538000  0.12537000  0.14118000  1.0
  C  C34  1  0.33677000  0.12680000  0.09377000  1.0
  C  C35  1  0.37547000  0.16899000  0.99495000  1.0
  C  C36  1  0.11479000  0.11548000  0.22658000  1.0
  C  C37  1  0.10009000  0.14167000  0.28190000  1.0
  C  C38  1  0.07920000  0.08849000  0.32433000  1.0
  C  C39  1  0.07152000  0.00940000  0.31174000  1.0
  C  C40  1  0.08824000  0.98391000  0.25606000  1.0
  C  C41  1  0.11141000  0.03667000  0.21330000  1.0
  C  C42  1  0.04492000  0.95468000  0.35788000  1.0
  C  C43  1  0.65785000  0.05577000  0.98973000  1.0
  C  C44  1  0.80357000  0.04659000  0.94639000  1.0
  C  C45  1  0.74016000  0.09068000  0.91416000  1.0
  C  C46  1  0.78703000  0.98095000  0.04226000  1.0
  C  C47  1  0.81203000  0.03092000  0.09309000  1.0
  C  C48  1  0.81592000  0.99659000  0.14726000  1.0
  C  C49  1  0.84208000  0.04154000  0.19423000  1.0
  C  C50  1  0.86271000  0.12025000  0.18846000  1.0
  C  C51  1  0.85736000  0.15454000  0.13505000  1.0
  C  C52  1  0.83225000  0.11000000  0.08772000  1.0
  C  C53  1  0.79478000  0.91174000  0.15568000  1.0
  C  C54  1  0.86149000  0.79140000  0.10860000  1.0
  C  C55  1  0.01988000  0.81734000  0.10662000  1.0
  C  C56  1  0.97384000  0.88026000  0.13035000  1.0
  C  C57  1  0.19172000  0.66730000  0.95519000  1.0
  C  C58  1  0.28351000  0.70529000  0.95663000  1.0
  C  C59  1  0.34546000  0.70418000  0.90954000  1.0
  C  C60  1  0.31505000  0.66477000  0.86079000  1.0
  C  C61  1  0.22461000  0.62537000  0.85882000  1.0
  C  C62  1  0.16323000  0.62680000  0.90623000  1.0
  C  C63  1  0.12453000  0.66899000  0.00505000  1.0
  C  C64  1  0.38520000  0.61548000  0.77342000  1.0
  C  C65  1  0.39990000  0.64167000  0.71810000  1.0
  C  C66  1  0.42079000  0.58849000  0.67567000  1.0
  C  C67  1  0.42848000  0.50940000  0.68826000  1.0
  C  C68  1  0.41176000  0.48391000  0.74394000  1.0
  C  C69  1  0.38858000  0.53667000  0.78670000  1.0
  C  C70  1  0.45508000  0.45468000  0.64212000  1.0
  C  C71  1  0.84214000  0.55577000  0.01027000  1.0
  C  C72  1  0.69643000  0.54659000  0.05361000  1.0
  C  C73  1  0.75983000  0.59068000  0.08584000  1.0
  C  C74  1  0.71297000  0.48095000  0.95774000  1.0
  C  C75  1  0.68797000  0.53092000  0.90691000  1.0
  C  C76  1  0.68407000  0.49659000  0.85274000  1.0
  C  C77  1  0.65792000  0.54154000  0.80577000  1.0
  C  C78  1  0.63729000  0.62025000  0.81154000  1.0
  C  C79  1  0.64263000  0.65454000  0.86495000  1.0
  C  C80  1  0.66774000  0.61000000  0.91228000  1.0
  C  C81  1  0.70521000  0.41174000  0.84432000  1.0
  C  C82  1  0.63851000  0.29140000  0.89140000  1.0
  C  C83  1  0.48011000  0.31734000  0.89338000  1.0
  C  C84  1  0.52615000  0.38026000  0.86965000  1.0
  C  C85  1  0.19172000  0.83270000  0.54481000  1.0
  C  C86  1  0.28351000  0.79471000  0.54337000  1.0
  C  C87  1  0.34546000  0.79582000  0.59046000  1.0
  C  C88  1  0.31505000  0.83523000  0.63921000  1.0
  C  C89  1  0.22461000  0.87463000  0.64117000  1.0
  C  C90  1  0.16323000  0.87320000  0.59377000  1.0
  C  C91  1  0.12453000  0.83101000  0.49495000  1.0
  C  C92  1  0.38520000  0.88452000  0.72658000  1.0
  C  C93  1  0.39991000  0.85833000  0.78190000  1.0
  C  C94  1  0.42079000  0.91151000  0.82433000  1.0
  C  C95  1  0.42848000  0.99060000  0.81174000  1.0
  C  C96  1  0.41176000  0.01609000  0.75606000  1.0
  C  C97  1  0.38858000  0.96333000  0.71330000  1.0
  C  C98  1  0.45508000  0.04533000  0.85788000  1.0
  C  C99  1  0.84214000  0.94423000  0.48973000  1.0
  C  C100  1  0.69643000  0.95341000  0.44639000  1.0
  C  C101  1  0.75983000  0.90932000  0.41416000  1.0
  C  C102  1  0.71297000  0.01905000  0.54226000  1.0
  C  C103  1  0.68797000  0.96908000  0.59309000  1.0
  C  C104  1  0.68407000  0.00342000  0.64726000  1.0
  C  C105  1  0.65791000  0.95846000  0.69423000  1.0
  C  C106  1  0.63729000  0.87975000  0.68846000  1.0
  C  C107  1  0.64263000  0.84546000  0.63505000  1.0
  C  C108  1  0.66774000  0.89000000  0.58772000  1.0
  C  C109  1  0.70521000  0.08826000  0.65568000  1.0
  C  C110  1  0.63851000  0.20860000  0.60860000  1.0
  C  C111  1  0.48011000  0.18266000  0.60662000  1.0
  C  C112  1  0.52616000  0.11974000  0.63035000  1.0
  C  C113  1  0.69172000  0.66730000  0.54481000  1.0
  C  C114  1  0.78351000  0.70529000  0.54337000  1.0
  C  C115  1  0.84546000  0.70418000  0.59046000  1.0
  C  C116  1  0.81505000  0.66477000  0.63921000  1.0
  C  C117  1  0.72461000  0.62537000  0.64117000  1.0
  C  C118  1  0.66323000  0.62680000  0.59377000  1.0
  C  C119  1  0.62452000  0.66899000  0.49495000  1.0
  C  C120  1  0.88520000  0.61548000  0.72658000  1.0
  C  C121  1  0.89990000  0.64167000  0.78190000  1.0
  C  C122  1  0.92079000  0.58849000  0.82433000  1.0
  C  C123  1  0.92848000  0.50940000  0.81174000  1.0
  C  C124  1  0.91176000  0.48391000  0.75606000  1.0
  C  C125  1  0.88858000  0.53667000  0.71330000  1.0
  C  C126  1  0.95508000  0.45468000  0.85788000  1.0
  C  C127  1  0.34214000  0.55577000  0.48973000  1.0
  C  C128  1  0.19643000  0.54659000  0.44639000  1.0
  C  C129  1  0.25983000  0.59068000  0.41416000  1.0
  C  C130  1  0.21297000  0.48095000  0.54226000  1.0
  C  C131  1  0.18797000  0.53092000  0.59309000  1.0
  C  C132  1  0.18407000  0.49659000  0.64726000  1.0
  C  C133  1  0.15792000  0.54154000  0.69423000  1.0
  C  C134  1  0.13729000  0.62025000  0.68846000  1.0
  C  C135  1  0.14264000  0.65454000  0.63505000  1.0
  C  C136  1  0.16775000  0.61000000  0.58772000  1.0
  C  C137  1  0.20521000  0.41174000  0.65568000  1.0
  C  C138  1  0.13851000  0.29140000  0.60860000  1.0
  C  C139  1  0.98011000  0.31734000  0.60662000  1.0
  C  C140  1  0.02616000  0.38026000  0.63035000  1.0
  C  C141  1  0.69172000  0.83270000  0.95519000  1.0
  C  C142  1  0.78351000  0.79471000  0.95663000  1.0
  C  C143  1  0.84546000  0.79582000  0.90954000  1.0
  C  C144  1  0.81505000  0.83523000  0.86079000  1.0
  C  C145  1  0.72461000  0.87463000  0.85882000  1.0
  C  C146  1  0.66323000  0.87320000  0.90623000  1.0
  C  C147  1  0.62453000  0.83101000  0.00504000  1.0
  C  C148  1  0.88520000  0.88452000  0.77342000  1.0
  C  C149  1  0.89990000  0.85833000  0.71810000  1.0
  C  C150  1  0.92079000  0.91151000  0.67567000  1.0
  C  C151  1  0.92848000  0.99060000  0.68826000  1.0
  C  C152  1  0.91176000  0.01609000  0.74394000  1.0
  C  C153  1  0.88858000  0.96333000  0.78670000  1.0
  C  C154  1  0.95508000  0.04533000  0.64212000  1.0
  C  C155  1  0.34214000  0.94423000  0.01027000  1.0
  C  C156  1  0.19643000  0.95341000  0.05361000  1.0
  C  C157  1  0.25983000  0.90932000  0.08584000  1.0
  C  C158  1  0.21297000  0.01905000  0.95774000  1.0
  C  C159  1  0.18797000  0.96908000  0.90691000  1.0
  C  C160  1  0.18407000  0.00342000  0.85274000  1.0
  C  C161  1  0.15792000  0.95846000  0.80577000  1.0
  C  C162  1  0.13729000  0.87975000  0.81154000  1.0
  C  C163  1  0.14264000  0.84546000  0.86495000  1.0
  C  C164  1  0.16775000  0.89000000  0.91228000  1.0
  C  C165  1  0.20521000  0.08826000  0.84432000  1.0
  C  C166  1  0.13851000  0.20860000  0.89140000  1.0
  C  C167  1  0.98011000  0.18266000  0.89338000  1.0
  C  C168  1  0.02616000  0.11974000  0.86965000  1.0
  C  C169  1  0.80827000  0.33270000  0.04481000  1.0
  C  C170  1  0.71649000  0.29471000  0.04337000  1.0
  C  C171  1  0.65454000  0.29582000  0.09046000  1.0
  C  C172  1  0.68495000  0.33523000  0.13921000  1.0
  C  C173  1  0.77538000  0.37463000  0.14117000  1.0
  C  C174  1  0.83677000  0.37320000  0.09377000  1.0
  C  C175  1  0.87547000  0.33101000  0.99495000  1.0
  C  C176  1  0.61479000  0.38452000  0.22658000  1.0
  C  C177  1  0.60009000  0.35833000  0.28190000  1.0
  C  C178  1  0.57920000  0.41151000  0.32433000  1.0
  C  C179  1  0.57151000  0.49060000  0.31174000  1.0
  C  C180  1  0.58824000  0.51609000  0.25606000  1.0
  C  C181  1  0.61141000  0.46333000  0.21330000  1.0
  C  C182  1  0.54492000  0.54533000  0.35787000  1.0
  C  C183  1  0.15786000  0.44423000  0.98973000  1.0
  C  C184  1  0.30357000  0.45341000  0.94639000  1.0
  C  C185  1  0.24016000  0.40933000  0.91416000  1.0
  C  C186  1  0.28703000  0.51905000  0.04226000  1.0
  C  C187  1  0.31203000  0.46908000  0.09309000  1.0
  C  C188  1  0.31592000  0.50342000  0.14726000  1.0
  C  C189  1  0.34208000  0.45846000  0.19423000  1.0
  C  C190  1  0.36271000  0.37975000  0.18846000  1.0
  C  C191  1  0.35736000  0.34546000  0.13505000  1.0
  C  C192  1  0.33225000  0.39000000  0.08772000  1.0
  C  C193  1  0.29479000  0.58826000  0.15568000  1.0
  C  C194  1  0.36149000  0.70860000  0.10860000  1.0
  C  C195  1  0.51988000  0.68266000  0.10662000  1.0
  C  C196  1  0.47384000  0.61974000  0.13035000  1.0
  C  C197  1  0.80827000  0.16730000  0.45519000  1.0
  C  C198  1  0.71649000  0.20529000  0.45663000  1.0
  C  C199  1  0.65454000  0.20418000  0.40954000  1.0
  C  C200  1  0.68495000  0.16477000  0.36079000  1.0
  C  C201  1  0.77538000  0.12537000  0.35882000  1.0
  C  C202  1  0.83677000  0.12680000  0.40623000  1.0
  C  C203  1  0.87547000  0.16899000  0.50504000  1.0
  C  C204  1  0.61479000  0.11548000  0.27342000  1.0
  C  C205  1  0.60009000  0.14167000  0.21810000  1.0
  C  C206  1  0.57920000  0.08849000  0.17567000  1.0
  C  C207  1  0.57151000  0.00940000  0.18826000  1.0
  C  C208  1  0.58824000  0.98391000  0.24394000  1.0
  C  C209  1  0.61141000  0.03667000  0.28670000  1.0
  C  C210  1  0.54492000  0.95468000  0.14212000  1.0
  C  C211  1  0.15786000  0.05577000  0.51027000  1.0
  C  C212  1  0.30357000  0.04659000  0.55361000  1.0
  C  C213  1  0.24016000  0.09068000  0.58584000  1.0
  C  C214  1  0.28703000  0.98095000  0.45774000  1.0
  C  C215  1  0.31203000  0.03092000  0.40691000  1.0
  C  C216  1  0.31592000  0.99659000  0.35274000  1.0
  C  C217  1  0.34208000  0.04154000  0.30577000  1.0
  C  C218  1  0.36271000  0.12025000  0.31154000  1.0
  C  C219  1  0.35736000  0.15454000  0.36495000  1.0
  C  C220  1  0.33225000  0.11000000  0.41228000  1.0
  C  C221  1  0.29479000  0.91174000  0.34432000  1.0
  C  C222  1  0.36149000  0.79140000  0.39140000  1.0
  C  C223  1  0.51988000  0.81734000  0.39338000  1.0
  C  C224  1  0.47384000  0.88026000  0.36965000  1.0
  N  N1  1  0.64984000  0.40354000  0.55822000  1.0
  N  N2  1  0.75020000  0.47525000  0.50620000  1.0
  N  N3  1  0.87357000  0.63700000  0.36868000  1.0
  N  N4  1  0.94919000  0.73802000  0.40657000  1.0
  N  N5  1  0.64984000  0.09646000  0.94178000  1.0
  N  N6  1  0.75020000  0.02475000  0.99380000  1.0
  N  N7  1  0.87357000  0.86300000  0.13132000  1.0
  N  N8  1  0.94919000  0.76198000  0.09343000  1.0
  N  N9  1  0.85016000  0.59646000  0.05822000  1.0
  N  N10  1  0.74980000  0.52475000  0.00620000  1.0
  N  N11  1  0.62642000  0.36300000  0.86868000  1.0
  N  N12  1  0.55080000  0.26198000  0.90657000  1.0
  N  N13  1  0.85016000  0.90354000  0.44178000  1.0
  N  N14  1  0.74980000  0.97525000  0.49380000  1.0
  N  N15  1  0.62642000  0.13700000  0.63132000  1.0
  N  N16  1  0.55080000  0.23802000  0.59343000  1.0
  N  N17  1  0.35016000  0.59646000  0.44178000  1.0
  N  N18  1  0.24980000  0.52475000  0.49380000  1.0
  N  N19  1  0.12642000  0.36300000  0.63132000  1.0
  N  N20  1  0.05081000  0.26198000  0.59343000  1.0
  N  N21  1  0.35016000  0.90354000  0.05822000  1.0
  N  N22  1  0.24980000  0.97525000  0.00620000  1.0
  N  N23  1  0.12642000  0.13700000  0.86868000  1.0
  N  N24  1  0.05081000  0.23802000  0.90657000  1.0
  N  N25  1  0.14984000  0.40354000  0.94178000  1.0
  N  N26  1  0.25020000  0.47525000  0.99380000  1.0
  N  N27  1  0.37357000  0.63700000  0.13132000  1.0
  N  N28  1  0.44919000  0.73802000  0.09343000  1.0
  N  N29  1  0.14984000  0.09646000  0.55822000  1.0
  N  N30  1  0.25020000  0.02475000  0.50620000  1.0
  N  N31  1  0.37357000  0.86300000  0.36868000  1.0
  N  N32  1  0.44919000  0.76198000  0.40657000  1.0
  O  O1  1  0.46495000  0.35520000  0.49731000  1.0
  O  O2  1  0.34549000  0.30837000  0.55325000  1.0
  O  O3  1  0.04509000  0.52315000  0.09101000  1.0
  O  O4  1  0.02057000  0.61561000  0.15482000  1.0
  O  O5  1  0.12391000  0.32717000  0.31409000  1.0
  O  O6  1  0.46495000  0.14480000  0.00269000  1.0
  O  O7  1  0.34549000  0.19163000  0.94675000  1.0
  O  O8  1  0.04509000  0.97685000  0.40899000  1.0
  O  O9  1  0.02058000  0.88439000  0.34518000  1.0
  O  O10  1  0.12391000  0.17283000  0.18591000  1.0
  O  O11  1  0.03505000  0.64480000  0.99731000  1.0
  O  O12  1  0.15450000  0.69163000  0.05325000  1.0
  O  O13  1  0.45491000  0.47685000  0.59101000  1.0
  O  O14  1  0.47942000  0.38439000  0.65482000  1.0
  O  O15  1  0.37608000  0.67283000  0.81409000  1.0
  O  O16  1  0.03505000  0.85520000  0.50269000  1.0
  O  O17  1  0.15450000  0.80837000  0.44675000  1.0
  O  O18  1  0.45491000  0.02315000  0.90899000  1.0
  O  O19  1  0.47942000  0.11561000  0.84518000  1.0
  O  O20  1  0.37609000  0.82718000  0.68591000  1.0
  O  O21  1  0.53505000  0.64480000  0.50269000  1.0
  O  O22  1  0.65450000  0.69163000  0.44675000  1.0
  O  O23  1  0.95491000  0.47685000  0.90899000  1.0
  O  O24  1  0.97942000  0.38439000  0.84518000  1.0
  O  O25  1  0.87608000  0.67283000  0.68591000  1.0
  O  O26  1  0.53505000  0.85520000  0.99731000  1.0
  O  O27  1  0.65450000  0.80837000  0.05325000  1.0
  O  O28  1  0.95491000  0.02315000  0.59101000  1.0
  O  O29  1  0.97942000  0.11561000  0.65482000  1.0
  O  O30  1  0.87608000  0.82718000  0.81409000  1.0
  O  O31  1  0.96495000  0.35520000  0.00269000  1.0
  O  O32  1  0.84549000  0.30837000  0.94675000  1.0
  O  O33  1  0.54509000  0.52315000  0.40899000  1.0
  O  O34  1  0.52057000  0.61561000  0.34518000  1.0
  O  O35  1  0.62391000  0.32717000  0.18591000  1.0
  O  O36  1  0.96495000  0.14480000  0.49731000  1.0
  O  O37  1  0.84549000  0.19163000  0.55325000  1.0
  O  O38  1  0.54509000  0.97685000  0.09101000  1.0
  O  O39  1  0.52057000  0.88439000  0.15482000  1.0
  O  O40  1  0.62391000  0.17283000  0.31409000  1.0
