# generated using pymatgen
data_H7C12N4O
_symmetry_space_group_name_H-M   'P 1'
_cell_length_a   25.80530000
_cell_length_b   25.80530000
_cell_length_c   27.22620000
_cell_angle_alpha   90.00000000
_cell_angle_beta   90.00000000
_cell_angle_gamma   120.00000000
_symmetry_Int_Tables_number   1
_chemical_formula_structural   H7C12N4O
_chemical_formula_sum   'H84 C144 N48 O12'
_cell_volume   15701.29548862
_cell_formula_units_Z   12
loop_
 _symmetry_equiv_pos_site_id
 _symmetry_equiv_pos_as_xyz
  1  'x, y, z'
loop_
 _atom_site_type_symbol
 _atom_site_label
 _atom_site_symmetry_multiplicity
 _atom_site_fract_x
 _atom_site_fract_y
 _atom_site_fract_z
 _atom_site_occupancy
  C  1  1  0.43056000  0.44108500  0.98564200  1
  C  2  1  0.43344600  0.40267100  0.94936400  1
  C  3  1  0.46276650  0.36953350  0.95789900  1
  C  4  1  0.49541300  0.38066600  0.00196800  1
  C  5  1  0.49710800  0.42044700  0.03835200  1
  C  6  1  0.46068950  0.44694050  0.03123000  1
  C  9  1  0.39909550  0.47277750  0.97609600  1
  C  10  1  0.40500200  0.50291300  0.93050400  1
  C  11  1  0.37890100  0.53971000  0.92351900  1
  C  12  1  0.33941050  0.53837850  0.96002200  1
  C  13  1  0.32806000  0.50555300  0.00401300  1
  C  14  1  0.36091300  0.47592400  0.01246500  1
  C  21  1  0.28364900  0.50369700  0.03570700  1
  C  22  1  0.53386450  0.43122550  0.08024500  1
  C  23  1  0.46079050  0.32504750  0.92623300  1
  C  24  1  0.38966200  0.57640200  0.88158900  1
  C  29  1  0.87905050  0.43268150  0.31894900  1
  C  30  1  0.83775150  0.42974150  0.28263900  1
  C  31  1  0.77530850  0.40053550  0.29123300  1
  C  32  1  0.75378200  0.36787700  0.33529400  1
  C  33  1  0.79186600  0.36613900  0.37165600  1
  C  34  1  0.85477250  0.40253750  0.36453100  1
  C  37  1  0.94220750  0.46417850  0.30940300  1
  C  38  1  0.96644850  0.45831550  0.26380000  1
  C  39  1  0.02935400  0.48450500  0.25678500  1
  C  40  1  0.06749850  0.52399150  0.29329800  1
  C  41  1  0.04601500  0.53527800  0.33731400  1
  C  42  1  0.98353400  0.50242100  0.34574400  1
  C  49  1  0.08854800  0.57965500  0.36904100  1
  C  50  1  0.76590150  0.32934850  0.41352400  1
  C  51  1  0.73281900  0.40258100  0.25958400  1
  C  52  1  0.05530500  0.47387100  0.21480300  1
  C  57  1  0.42216700  0.98425000  0.65231600  1
  C  58  1  0.46058700  0.02555200  0.61603900  1
  C  59  1  0.49377400  0.08800300  0.62458900  1
  C  60  1  0.48269500  0.10952200  0.66868100  1
  C  61  1  0.44289150  0.07144250  0.70505700  1
  C  62  1  0.41634350  0.00852850  0.69791300  1
  C  65  1  0.39047200  0.92109500  0.64276700  1
  C  66  1  0.36036500  0.89687200  0.59716300  1
  C  67  1  0.32361800  0.83397300  0.59015200  1
  C  68  1  0.32496700  0.79581200  0.62664600  1
  C  69  1  0.35774550  0.81728250  0.67065800  1
  C  70  1  0.38732700  0.87976000  0.67912800  1
  C  77  1  0.35960850  0.77473350  0.70235200  1
  C  78  1  0.43220950  0.09742650  0.74698900  1
  C  79  1  0.53827100  0.13049400  0.59291700  1
  C  80  1  0.28699900  0.80804100  0.54818800  1
  C  85  1  0.43876200  0.21947300  0.86280100  1
  C  87  1  0.43893850  0.19087950  0.77944600  1
  C  88  1  0.44162950  0.24440950  0.76422900  1
  C  90  1  0.44099650  0.27319150  0.84778200  1
  C  95  1  0.64930800  0.42465900  0.19612600  1
  C  97  1  0.62050800  0.42440300  0.11276500  1
  C  98  1  0.67129250  0.42160050  0.09756000  1
  C  100  1  0.70074950  0.42233850  0.18111900  1
  C  105  1  0.64384950  0.21399250  0.52945300  1
  C  107  1  0.67237550  0.24278650  0.44609200  1
  C  108  1  0.61877700  0.19201600  0.43089000  1
  C  110  1  0.59007750  0.16256050  0.51444900  1
  C  115  1  0.38091300  0.71427767  0.86421000  1
  C  117  1  0.38023300  0.74297900  0.78062900  1
  C  118  1  0.38175100  0.69110900  0.76563900  1
  C  120  1  0.38296900  0.66312200  0.84901800  1
  C  125  1  0.20182800  0.48229400  0.19753700  1
  C  127  1  0.23120150  0.48298450  0.11395900  1
  C  128  1  0.17784500  0.48152600  0.09895900  1
  C  130  1  0.14863750  0.48034150  0.18233100  1
  C  135  1  0.14895950  0.66147650  0.53087800  1
  C  137  1  0.12031150  0.63207050  0.44730400  1
  C  138  1  0.17217050  0.68545750  0.43230000  1
  C  140  1  0.20017550  0.71468450  0.51567200  1
  C  577  1  0.43056000  0.44108500  0.61834900  1
  C  578  1  0.43344600  0.40267100  0.58207100  1
  C  579  1  0.46276650  0.36953350  0.59060600  1
  C  580  1  0.49541300  0.38066600  0.63467500  1
  C  581  1  0.49710800  0.42044700  0.67105900  1
  C  582  1  0.46068950  0.44694050  0.66393700  1
  C  585  1  0.39909550  0.47277750  0.60880300  1
  C  586  1  0.40500200  0.50291300  0.56321100  1
  C  587  1  0.37890100  0.53971000  0.55622600  1
  C  588  1  0.33941050  0.53837850  0.59272900  1
  C  589  1  0.32806000  0.50555300  0.63672000  1
  C  590  1  0.36091300  0.47592400  0.64517200  1
  C  597  1  0.28364900  0.50369700  0.66841400  1
  C  598  1  0.53386450  0.43122550  0.71295200  1
  C  599  1  0.46079050  0.32504750  0.55894000  1
  C  600  1  0.38966200  0.57640200  0.51429600  1
  C  605  1  0.87905050  0.43268150  0.95165570  1
  C  606  1  0.83775150  0.42974150  0.91534570  1
  C  607  1  0.77530850  0.40053550  0.92393970  1
  C  608  1  0.75378200  0.36787700  0.96800070  1
  C  609  1  0.79186600  0.36613900  0.00436300  1
  C  610  1  0.85477250  0.40253750  0.99723773  1
  C  613  1  0.94220750  0.46417850  0.94210970  1
  C  614  1  0.96644850  0.45831550  0.89650700  1
  C  615  1  0.02935400  0.48450500  0.88949200  1
  C  616  1  0.06749850  0.52399150  0.92600470  1
  C  617  1  0.04601500  0.53527800  0.97002070  1
  C  618  1  0.98353400  0.50242100  0.97845070  1
  C  625  1  0.08854800  0.57965500  0.00174800  1
  C  626  1  0.76590150  0.32934850  0.04623100  1
  C  627  1  0.73281900  0.40258100  0.89229100  1
  C  628  1  0.05530500  0.47387100  0.84751000  1
  C  633  1  0.42216700  0.98425000  0.28502300  1
  C  634  1  0.46058700  0.02555200  0.24874600  1
  C  635  1  0.49377400  0.08800300  0.25729600  1
  C  636  1  0.48269500  0.10952200  0.30138800  1
  C  637  1  0.44289150  0.07144250  0.33776400  1
  C  638  1  0.41634350  0.00852850  0.33062000  1
  C  641  1  0.39047200  0.92109500  0.27547400  1
  C  642  1  0.36036500  0.89687200  0.22987000  1
  C  643  1  0.32361800  0.83397300  0.22285900  1
  C  644  1  0.32496700  0.79581200  0.25935300  1
  C  645  1  0.35774550  0.81728250  0.30336500  1
  C  646  1  0.38732700  0.87976000  0.31183500  1
  C  653  1  0.35960850  0.77473350  0.33505900  1
  C  654  1  0.43220950  0.09742650  0.37969600  1
  C  655  1  0.53827100  0.13049400  0.22562400  1
  C  656  1  0.28699900  0.80804100  0.18089500  1
  C  661  1  0.43876200  0.21947300  0.49550800  1
  C  663  1  0.43893850  0.19087950  0.41215300  1
  C  664  1  0.44162950  0.24440950  0.39693600  1
  C  666  1  0.44099650  0.27319150  0.48048900  1
  C  671  1  0.64930800  0.42465900  0.82883300  1
  C  673  1  0.62050800  0.42440300  0.74547200  1
  C  674  1  0.67129250  0.42160050  0.73026700  1
  C  676  1  0.70074950  0.42233850  0.81382600  1
  C  681  1  0.64384950  0.21399250  0.16216000  1
  C  683  1  0.67237550  0.24278650  0.07879900  1
  C  684  1  0.61877700  0.19201600  0.06359700  1
  C  686  1  0.59007750  0.16256050  0.14715600  1
  C  691  1  0.38091300  0.71427767  0.49691700  1
  C  693  1  0.38023300  0.74297900  0.41333600  1
  C  694  1  0.38175100  0.69110900  0.39834600  1
  C  696  1  0.38296900  0.66312200  0.48172500  1
  C  701  1  0.20182800  0.48229400  0.83024400  1
  C  703  1  0.23120150  0.48298450  0.74666600  1
  C  704  1  0.17784500  0.48152600  0.73166600  1
  C  706  1  0.14863750  0.48034150  0.81503800  1
  C  711  1  0.14895950  0.66147650  0.16358500  1
  C  713  1  0.12031150  0.63207050  0.08001100  1
  C  714  1  0.17217050  0.68545750  0.06500700  1
  C  716  1  0.20017550  0.71468450  0.14837900  1
  H  7  1  0.40883500  0.39402400  0.91787700  1
  H  8  1  0.51833450  0.35829950  0.00803500  1
  H  15  1  0.31728950  0.56155950  0.95404200  1
  H  16  1  0.35203800  0.45110900  0.04385400  1
  H  19  1  0.43991150  0.46539850  0.09297200  1
  H  20  1  0.42288100  0.48173800  0.86870500  1
  H  25  1  0.25851500  0.52124300  0.02249600  1
  H  26  1  0.52905450  0.45197550  0.11046600  1
  H  27  1  0.47795250  0.29962450  0.93956800  1
  H  28  1  0.40982300  0.57112300  0.85117800  1
  H  35  1  0.85372650  0.45449750  0.25122400  1
  H  36  1  0.70849600  0.34497900  0.34136900  1
  H  43  1  0.11279850  0.54616750  0.28730000  1
  H  44  1  0.96755350  0.51116050  0.37717600  1
  H  47  1  0.89399100  0.42327100  0.42628700  1
  H  48  1  0.92736600  0.44042500  0.20201400  1
  H  53  1  0.13123000  0.60479500  0.35582200  1
  H  54  1  0.79141000  0.33416700  0.44378500  1
  H  55  1  0.69026750  0.38551050  0.27296800  1
  H  56  1  0.02980550  0.45346050  0.18448000  1
  H  63  1  0.46921600  0.00958700  0.58454700  1
  H  64  1  0.50511350  0.15480650  0.67476800  1
  H  71  1  0.30183300  0.75051600  0.62064100  1
  H  72  1  0.41212350  0.89569850  0.71052700  1
  H  75  1  0.39788300  0.96929200  0.75965700  1
  H  76  1  0.38153850  0.93592950  0.53536300  1
  H  81  1  0.34210350  0.73206450  0.68911800  1
  H  82  1  0.41130600  0.07187300  0.77717300  1
  H  83  1  0.56374000  0.17305500  0.60629100  1
  H  84  1  0.29212250  0.83349150  0.51782100  1
  H  91  1  0.43693400  0.20843100  0.89897100  1
  H  92  1  0.44303050  0.25467350  0.72783800  1
  H  101  1  0.64009100  0.42648500  0.23229400  1
  H  102  1  0.68011450  0.42011050  0.06117200  1
  H  111  1  0.65490500  0.22320000  0.56562000  1
  H  112  1  0.60848050  0.18316950  0.39450200  1
  H  121  1  0.38025850  0.72359150  0.90060400  1
  H  122  1  0.38286100  0.68149300  0.72946100  1
  H  131  1  0.21174700  0.48293000  0.23393200  1
  H  132  1  0.16717250  0.48051650  0.06277700  1
  H  141  1  0.13968200  0.65155500  0.56727300  1
  H  142  1  0.18184450  0.69612350  0.39611800  1
  H  583  1  0.40883500  0.39402400  0.55058400  1
  H  584  1  0.51833450  0.35829950  0.64074200  1
  H  591  1  0.31728950  0.56155950  0.58674900  1
  H  592  1  0.35203800  0.45110900  0.67656100  1
  H  595  1  0.43991150  0.46539850  0.72567900  1
  H  596  1  0.42288100  0.48173800  0.50141200  1
  H  601  1  0.25851500  0.52124300  0.65520300  1
  H  602  1  0.52905450  0.45197550  0.74317300  1
  H  603  1  0.47795250  0.29962450  0.57227500  1
  H  604  1  0.40982300  0.57112300  0.48388500  1
  H  611  1  0.85372650  0.45449750  0.88393100  1
  H  612  1  0.70849600  0.34497900  0.97407570  1
  H  619  1  0.11279850  0.54616750  0.92000670  1
  H  620  1  0.96755350  0.51116050  0.00988300  1
  H  623  1  0.89399100  0.42327100  0.05899400  1
  H  624  1  0.92736600  0.44042500  0.83472100  1
  H  629  1  0.13123000  0.60479500  0.98852870  1
  H  630  1  0.79141000  0.33416700  0.07649200  1
  H  631  1  0.69026750  0.38551050  0.90567470  1
  H  632  1  0.02980550  0.45346050  0.81718700  1
  H  639  1  0.46921600  0.00958700  0.21725400  1
  H  640  1  0.50511350  0.15480650  0.30747500  1
  H  647  1  0.30183300  0.75051600  0.25334800  1
  H  648  1  0.41212350  0.89569850  0.34323400  1
  H  651  1  0.39788300  0.96929200  0.39236400  1
  H  652  1  0.38153850  0.93592950  0.16807000  1
  H  657  1  0.34210350  0.73206450  0.32182500  1
  H  658  1  0.41130600  0.07187300  0.40988000  1
  H  659  1  0.56374000  0.17305500  0.23899800  1
  H  660  1  0.29212250  0.83349150  0.15052800  1
  H  667  1  0.43693400  0.20843100  0.53167800  1
  H  668  1  0.44303050  0.25467350  0.36054500  1
  H  677  1  0.64009100  0.42648500  0.86500100  1
  H  678  1  0.68011450  0.42011050  0.69387900  1
  H  687  1  0.65490500  0.22320000  0.19832700  1
  H  688  1  0.60848050  0.18316950  0.02720900  1
  H  697  1  0.38025850  0.72359150  0.53331100  1
  H  698  1  0.38286100  0.68149300  0.36216800  1
  H  707  1  0.21174700  0.48293000  0.86663900  1
  H  708  1  0.16717250  0.48051650  0.69548400  1
  H  717  1  0.13968200  0.65155500  0.19998000  1
  H  718  1  0.18184450  0.69612350  0.02882500  1
  N  86  1  0.43698100  0.18031300  0.82849400  1
  N  89  1  0.44156000  0.28260700  0.79861300  1
  N  93  1  0.44525300  0.31714200  0.87812300  1
  N  94  1  0.44121000  0.15391300  0.74538200  1
  N  96  1  0.61192700  0.42642400  0.16181400  1
  N  99  1  0.70954950  0.42166250  0.13194900  1
  N  103  1  0.74041550  0.41803450  0.21145700  1
  N  104  1  0.58129400  0.42214500  0.07868800  1
  N  106  1  0.68299800  0.25136100  0.49513700  1
  N  109  1  0.58059200  0.15375500  0.46528300  1
  N  113  1  0.54611850  0.12288550  0.54479500  1
  N  114  1  0.70935600  0.28196100  0.41200300  1
  N  116  1  0.38063700  0.75236400  0.82979100  1
  N  119  1  0.38391750  0.65394750  0.79995900  1
  N  123  1  0.38099050  0.62409250  0.88315300  1
  N  124  1  0.37581650  0.78259650  0.75031200  1
  N  126  1  0.24015450  0.48254450  0.16312100  1
  N  129  1  0.13854350  0.47943050  0.13327100  1
  N  133  1  0.11161800  0.48241500  0.21644900  1
  N  134  1  0.27525250  0.48742050  0.08365400  1
  N  136  1  0.11090600  0.62312900  0.49646600  1
  N  139  1  0.20936600  0.72477500  0.46660900  1
  N  143  1  0.23925350  0.75171250  0.54979300  1
  N  144  1  0.08068350  0.58803250  0.41699100  1
  N  662  1  0.43698100  0.18031300  0.46120100  1
  N  665  1  0.44156000  0.28260700  0.43132000  1
  N  669  1  0.44525300  0.31714200  0.51083000  1
  N  670  1  0.44121000  0.15391300  0.37808900  1
  N  672  1  0.61192700  0.42642400  0.79452100  1
  N  675  1  0.70954950  0.42166250  0.76465600  1
  N  679  1  0.74041550  0.41803450  0.84416400  1
  N  680  1  0.58129400  0.42214500  0.71139500  1
  N  682  1  0.68299800  0.25136100  0.12784400  1
  N  685  1  0.58059200  0.15375500  0.09799000  1
  N  689  1  0.54611850  0.12288550  0.17750200  1
  N  690  1  0.70935600  0.28196100  0.04471000  1
  N  692  1  0.38063700  0.75236400  0.46249800  1
  N  695  1  0.38391750  0.65394750  0.43266600  1
  N  699  1  0.38099050  0.62409250  0.51586000  1
  N  700  1  0.37581650  0.78259650  0.38301900  1
  N  702  1  0.24015450  0.48254450  0.79582800  1
  N  705  1  0.13854350  0.47943050  0.76597800  1
  N  709  1  0.11161800  0.48241500  0.84915600  1
  N  710  1  0.27525250  0.48742050  0.71636100  1
  N  712  1  0.11090600  0.62312900  0.12917300  1
  N  715  1  0.20936600  0.72477500  0.09931600  1
  N  719  1  0.23925350  0.75171250  0.18250000  1
  N  720  1  0.08068350  0.58803250  0.04969800  1
  O  17  1  0.46473800  0.48812300  0.06477900  1
  O  18  1  0.44587000  0.50658100  0.89680400  1
  O  45  1  0.89195800  0.39852700  0.39805300  1
  O  46  1  0.92926700  0.41744200  0.23009700  1
  O  73  1  0.37516000  0.97139900  0.73146400  1
  O  74  1  0.35669350  0.93406850  0.56346400  1
  O  593  1  0.46473800  0.48812300  0.69748600  1
  O  594  1  0.44587000  0.50658100  0.52951100  1
  O  621  1  0.89195800  0.39852700  0.03076000  1
  O  622  1  0.92926700  0.41744200  0.86280400  1
  O  649  1  0.37516000  0.97139900  0.36417100  1
  O  650  1  0.35669350  0.93406850  0.19617100  1
