# generated using pymatgen
data_NdH9(C3O)6
_symmetry_space_group_name_H-M   'P 1'
_cell_length_a   9.26367064
_cell_length_b   14.67511383
_cell_length_c   20.73776561
_cell_angle_alpha   90.02572713
_cell_angle_beta   90.00298348
_cell_angle_gamma   74.61930215
_symmetry_Int_Tables_number   1
_chemical_formula_structural   NdH9(C3O)6
_chemical_formula_sum   'Nd4 H36 C72 O24'
_cell_volume   2718.23366630
_cell_formula_units_Z   4
loop_
 _symmetry_equiv_pos_site_id
 _symmetry_equiv_pos_as_xyz
  1  'x, y, z'
loop_
 _atom_site_type_symbol
 _atom_site_label
 _atom_site_symmetry_multiplicity
 _atom_site_fract_x
 _atom_site_fract_y
 _atom_site_fract_z
 _atom_site_occupancy
  Nd  Nd1  1  0.76220289  0.47503719  0.01967137  1.0
  Nd  Nd2  1  0.73763280  0.02507763  0.51988209  1.0
  Nd  Nd3  1  0.23773195  0.52505250  0.98020826  1.0
  Nd  Nd4  1  0.26268563  0.97498378  0.48026569  1.0
  H  H1  1  0.23943485  0.61392028  0.13252483  1.0
  H  H2  1  0.28707840  0.71707755  0.22009554  1.0
  H  H3  1  0.19060029  0.82667719  0.31235221  1.0
  H  H4  1  0.73773541  0.86554219  0.37810377  1.0
  H  H5  1  0.68971884  0.76275155  0.28946464  1.0
  H  H6  1  0.78064195  0.66345435  0.19299087  1.0
  H  H7  1  0.74454011  0.00232373  0.92794725  1.0
  H  H8  1  0.67683547  0.17761594  0.94275968  1.0
  H  H9  1  0.07733193  0.15581970  0.05287267  1.0
  H  H10  1  0.26087824  0.88611107  0.63234432  1.0
  H  H11  1  0.21278942  0.78325528  0.71992870  1.0
  H  H12  1  0.30908431  0.67337272  0.81206100  1.0
  H  H13  1  0.76192988  0.63425296  0.87796246  1.0
  H  H14  1  0.81002220  0.73728828  0.78953302  1.0
  H  H15  1  0.71957084  0.83632263  0.69302649  1.0
  H  H16  1  0.75518954  0.49778603  0.42797186  1.0
  H  H17  1  0.82296570  0.32252958  0.44281068  1.0
  H  H18  1  0.42243604  0.34440521  0.55285598  1.0
  H  H19  1  0.76058459  0.38617333  0.86754781  1.0
  H  H20  1  0.71272307  0.28307311  0.78000136  1.0
  H  H21  1  0.80920263  0.17313311  0.68791677  1.0
  H  H22  1  0.26208066  0.13408030  0.62205841  1.0
  H  H23  1  0.30996469  0.23729003  0.71045799  1.0
  H  H24  1  0.21927621  0.33653321  0.80697371  1.0
  H  H25  1  0.25543949  0.99772485  0.07203620  1.0
  H  H26  1  0.32313369  0.82240516  0.05724267  1.0
  H  H27  1  0.92257405  0.84424965  0.94713318  1.0
  H  H28  1  0.73973203  0.11398207  0.36729475  1.0
  H  H29  1  0.78721361  0.21726990  0.27979491  1.0
  H  H30  1  0.69072394  0.32681466  0.18776926  1.0
  H  H31  1  0.23789308  0.36581850  0.12194427  1.0
  H  H32  1  0.18977653  0.26293236  0.21043045  1.0
  H  H33  1  0.28090627  0.16339243  0.30691969  1.0
  H  H34  1  0.24434357  0.50242820  0.57202741  1.0
  H  H35  1  0.17652137  0.67773789  0.55733365  1.0
  H  H36  1  0.57701394  0.65594493  0.44718354  1.0
  C  C1  1  0.00519754  0.63364294  0.15771544  1.0
  C  C2  1  0.15036010  0.64745360  0.16577884  1.0
  C  C3  1  0.17641293  0.70497075  0.21432358  1.0
  C  C4  1  0.06026812  0.75009096  0.25758857  1.0
  C  C5  1  0.08232011  0.81126730  0.30698699  1.0
  C  C6  1  0.96767470  0.85185297  0.34943152  1.0
  C  C7  1  0.82539020  0.83316747  0.34383135  1.0
  C  C8  1  0.79946092  0.77621366  0.29496763  1.0
  C  C9  1  0.91488440  0.73354562  0.25079063  1.0
  C  C10  1  0.89073246  0.67562212  0.19984422  1.0
  C  C11  1  0.97152205  0.57544819  0.10400657  1.0
  C  C12  1  0.99624346  0.91445998  0.40164179  1.0
  C  C13  1  0.81717848  0.03602739  0.95513397  1.0
  C  C14  1  0.77931759  0.13248235  0.96317581  1.0
  C  C15  1  0.87438465  0.17554571  0.99891093  1.0
  C  C16  1  0.00596130  0.12110284  0.02574610  1.0
  C  C17  1  0.04816581  0.02180776  0.01800686  1.0
  C  C18  1  0.83286840  0.27983416  0.00711411  1.0
  C  C19  1  0.49512056  0.86622168  0.65761835  1.0
  C  C20  1  0.34981186  0.85261181  0.66564927  1.0
  C  C21  1  0.32350513  0.79523585  0.71419490  1.0
  C  C22  1  0.43948147  0.75005073  0.75748670  1.0
  C  C23  1  0.41735620  0.68878966  0.80676980  1.0
  C  C24  1  0.53197241  0.64805438  0.84917780  1.0
  C  C25  1  0.67428936  0.66666667  0.84371249  1.0
  C  C26  1  0.70027389  0.72380377  0.79497372  1.0
  C  C27  1  0.58492201  0.76651429  0.75078433  1.0
  C  C28  1  0.60937213  0.82428828  0.69984364  1.0
  C  C29  1  0.52943761  0.92402696  0.60383479  1.0
  C  C30  1  0.50339352  0.58533690  0.90125015  1.0
  C  C31  1  0.68254026  0.46406138  0.45516812  1.0
  C  C32  1  0.72043755  0.36761045  0.46322991  1.0
  C  C33  1  0.62537520  0.32456091  0.49895978  1.0
  C  C34  1  0.49378467  0.37905376  0.52575144  1.0
  C  C35  1  0.45152160  0.47833803  0.51802053  1.0
  C  C36  1  0.66705158  0.22033937  0.50722366  1.0
  C  C37  1  0.99478990  0.36638652  0.84229756  1.0
  C  C38  1  0.84957900  0.35264389  0.83425807  1.0
  C  C39  1  0.82340572  0.29513855  0.78573418  1.0
  C  C40  1  0.93951086  0.24993561  0.74248683  1.0
  C  C41  1  0.91747732  0.18857130  0.69322063  1.0
  C  C42  1  0.03216887  0.14779420  0.65084404  1.0
  C  C43  1  0.17442860  0.16655953  0.65630956  1.0
  C  C44  1  0.20029336  0.22373120  0.70504001  1.0
  C  C45  1  0.08490338  0.26647155  0.74920923  1.0
  C  C46  1  0.10916470  0.32440068  0.80012527  1.0
  C  C47  1  0.02869961  0.42447625  0.89603644  1.0
  C  C48  1  0.00360309  0.08495340  0.59881831  1.0
  C  C49  1  0.18273878  0.96398771  0.04484427  1.0
  C  C50  1  0.22060960  0.86751203  0.03680847  1.0
  C  C51  1  0.12550759  0.82447400  0.00108324  1.0
  C  C52  1  0.99395122  0.87892858  0.97425038  1.0
  C  C53  1  0.95169923  0.97821083  0.98196544  1.0
  C  C54  1  0.16704899  0.72025583  0.99287562  1.0
  C  C55  1  0.50555570  0.13362642  0.34212690  1.0
  C  C56  1  0.65068054  0.14752604  0.33405993  1.0
  C  C57  1  0.67663013  0.20510107  0.28558260  1.0
  C  C58  1  0.56044732  0.25022030  0.24237375  1.0
  C  C59  1  0.58246404  0.31144337  0.19308100  1.0
  C  C60  1  0.46783610  0.35207709  0.15067981  1.0
  C  C61  1  0.32555614  0.33340116  0.15620184  1.0
  C  C62  1  0.29959316  0.27637080  0.20498958  1.0
  C  C63  1  0.41506916  0.23363811  0.24913950  1.0
  C  C64  1  0.39101234  0.17561335  0.30004314  1.0
  C  C65  1  0.47219915  0.07535262  0.39582830  1.0
  C  C66  1  0.49651441  0.41471381  0.09859272  1.0
  C  C67  1  0.31694481  0.53615521  0.54487168  1.0
  C  C68  1  0.27901083  0.63260436  0.53689443  1.0
  C  C69  1  0.37413061  0.67562899  0.50116774  1.0
  C  C70  1  0.50569013  0.62120458  0.47428791  1.0
  C  C71  1  0.54794307  0.52190904  0.48200191  1.0
  C  C72  1  0.33271714  0.77988533  0.49301249  1.0
  O  O1  1  0.83633538  0.57213095  0.09619773  1.0
  O  O2  1  0.07732482  0.52997042  0.06726887  1.0
  O  O3  1  0.10936558  0.94797424  0.39630471  1.0
  O  O4  1  0.90794238  0.93168068  0.45012974  1.0
  O  O5  1  0.91614048  0.31901021  0.04130280  1.0
  O  O6  1  0.71434083  0.33029980  0.97958307  1.0
  O  O7  1  0.66492215  0.92663157  0.59590827  1.0
  O  O8  1  0.42388186  0.96990335  0.56711568  1.0
  O  O9  1  0.39021526  0.55190632  0.89587923  1.0
  O  O10  1  0.59175178  0.56789563  0.94972797  1.0
  O  O11  1  0.58343093  0.18114161  0.54117152  1.0
  O  O12  1  0.78602441  0.16982026  0.48002883  1.0
  O  O13  1  0.16400000  0.42755137  0.90384755  1.0
  O  O14  1  0.92298852  0.47006990  0.93277774  1.0
  O  O15  1  0.89037105  0.05155769  0.60422472  1.0
  O  O16  1  0.09197842  0.06740275  0.55035340  1.0
  O  O17  1  0.08373450  0.68107219  0.95873243  1.0
  O  O18  1  0.28563804  0.66974354  0.02032081  1.0
  O  O19  1  0.33708982  0.07195907  0.40383058  1.0
  O  O20  1  0.57835987  0.02996375  0.43238749  1.0
  O  O21  1  0.60968573  0.44814460  0.10398739  1.0
  O  O22  1  0.40833563  0.43210603  0.05005128  1.0
  O  O23  1  0.41590274  0.81888282  0.45864857  1.0
  O  O24  1  0.21453494  0.83047131  0.52071313  1.0
