# generated using pymatgen
data_H15C20O
_symmetry_space_group_name_H-M   'P 1'
_cell_length_a   24.55260000
_cell_length_b   40.12230000
_cell_length_c   40.12230000
_cell_angle_alpha   90.00000000
_cell_angle_beta   90.00000000
_cell_angle_gamma   90.00000000
_symmetry_Int_Tables_number   1
_chemical_formula_structural   H15C20O
_chemical_formula_sum   'H240 C320 O16'
_cell_volume   39524.74987876
_cell_formula_units_Z   16
loop_
 _symmetry_equiv_pos_site_id
 _symmetry_equiv_pos_as_xyz
  1  'x, y, z'
loop_
 _atom_site_type_symbol
 _atom_site_label
 _atom_site_symmetry_multiplicity
 _atom_site_fract_x
 _atom_site_fract_y
 _atom_site_fract_z
 _atom_site_occupancy
  C  1  1  0.12376800  0.12583200  0.10841200  1
  C  2  1  0.15312400  0.10749700  0.13258800  1
  C  3  1  0.15592200  0.07229400  0.13143700  1
  C  4  1  0.12810000  0.05567200  0.10542900  1
  C  5  1  0.09797900  0.07328300  0.08117100  1
  C  6  1  0.09616200  0.10854200  0.08261100  1
  C  9  1  0.12323800  0.16126800  0.10973200  1
  C  10  1  0.09447900  0.17870400  0.13502000  1
  C  11  1  0.09129400  0.21403600  0.13433800  1
  C  12  1  0.11823300  0.23147000  0.10850600  1
  C  13  1  0.14805700  0.21458400  0.08365900  1
  C  14  1  0.15062000  0.17949300  0.08463600  1
  C  21  1  0.63093200  0.66201800  0.10809200  1
  C  22  1  0.65820800  0.68094200  0.08345700  1
  C  23  1  0.65935600  0.71616200  0.08460800  1
  C  24  1  0.63193800  0.73223300  0.11109900  1
  C  25  1  0.60390400  0.71403900  0.13586700  1
  C  26  1  0.60378200  0.67875100  0.13443800  1
  C  29  1  0.63206200  0.62659900  0.10629200  1
  C  30  1  0.60540200  0.60923200  0.08018500  1
  C  31  1  0.60765700  0.57396000  0.07873300  1
  C  32  1  0.63729800  0.55648500  0.10334200  1
  C  33  1  0.66452000  0.57316200  0.12955900  1
  C  34  1  0.66124200  0.60834900  0.13061500  1
  C  41  1  0.62420800  0.16400200  0.60929400  1
  C  42  1  0.59660100  0.18257900  0.63405600  1
  C  43  1  0.59452800  0.21779000  0.63298100  1
  C  44  1  0.62128700  0.23422000  0.60645500  1
  C  45  1  0.64962600  0.21635600  0.58160100  1
  C  46  1  0.65074600  0.18108700  0.58294000  1
  C  49  1  0.62365400  0.12856400  0.61066500  1
  C  50  1  0.65031400  0.11089300  0.63661500  1
  C  51  1  0.64964200  0.07553800  0.63708100  1
  C  52  1  0.62224400  0.05819800  0.61142700  1
  C  53  1  0.59530600  0.07540300  0.58558100  1
  C  54  1  0.59573800  0.11055000  0.58562100  1
  C  61  1  0.13261100  0.62775700  0.60703300  1
  C  62  1  0.10512900  0.60953800  0.58195500  1
  C  63  1  0.10636300  0.57436100  0.58146400  1
  C  64  1  0.13439700  0.55739000  0.60707100  1
  C  65  1  0.16134900  0.57494900  0.63272000  1
  C  66  1  0.16049600  0.61026800  0.63262300  1
  C  69  1  0.13199000  0.66321400  0.60626100  1
  C  70  1  0.15959200  0.68124100  0.58089800  1
  C  71  1  0.16133200  0.71659600  0.58174300  1
  C  72  1  0.13436000  0.73349400  0.60789600  1
  C  73  1  0.10572800  0.71600500  0.63285400  1
  C  74  1  0.10443500  0.68088700  0.63167800  1
  C  81  1  0.38078300  0.89624400  0.33956600  1
  C  82  1  0.34996500  0.92027300  0.32202800  1
  C  83  1  0.34696100  0.91958000  0.28697700  1
  C  84  1  0.37534300  0.89455900  0.26946300  1
  C  85  1  0.40767600  0.87053200  0.28613500  1
  C  86  1  0.40936600  0.87127000  0.32156400  1
  C  89  1  0.38014400  0.89681500  0.37499800  1
  C  90  1  0.40857600  0.92154600  0.39342400  1
  C  91  1  0.40582400  0.92212000  0.42882300  1
  C  92  1  0.37224700  0.89837700  0.44495700  1
  C  93  1  0.34407000  0.87350600  0.42708900  1
  C  94  1  0.34857400  0.87282300  0.39208600  1
  C  101  1  0.87519500  0.89418800  0.87440300  1
  C  102  1  0.84417200  0.86995700  0.89151100  1
  C  103  1  0.84057000  0.87038800  0.92654400  1
  C  104  1  0.86876400  0.89520400  0.94445600  1
  C  105  1  0.90144400  0.91932800  0.92820400  1
  C  106  1  0.90359600  0.91896400  0.89278900  1
  C  109  1  0.87671400  0.89340700  0.83900400  1
  C  110  1  0.90897200  0.86978700  0.82159000  1
  C  111  1  0.91007600  0.86964000  0.78620000  1
  C  112  1  0.87726200  0.89304100  0.76901800  1
  C  113  1  0.84419200  0.91663600  0.78566700  1
  C  114  1  0.84461600  0.91637000  0.82089900  1
  C  121  1  0.87845400  0.39516100  0.37688700  1
  C  122  1  0.91045800  0.41798900  0.39524900  1
  C  123  1  0.91088200  0.41792400  0.43049800  1
  C  124  1  0.87758200  0.39424900  0.44688100  1
  C  125  1  0.84497400  0.37096300  0.42943400  1
  C  126  1  0.84624500  0.37134900  0.39407000  1
  C  129  1  0.87930400  0.39647500  0.34149100  1
  C  130  1  0.85288400  0.42256300  0.32393400  1
  C  131  1  0.85426000  0.42329800  0.28864000  1
  C  132  1  0.88339600  0.39848100  0.27121000  1
  C  133  1  0.91011600  0.37246600  0.28834100  1
  C  134  1  0.90739400  0.37151900  0.32347300  1
  C  141  1  0.37517400  0.39493000  0.84240600  1
  C  142  1  0.40643500  0.37069100  0.82547800  1
  C  143  1  0.41084500  0.37123700  0.79048500  1
  C  144  1  0.38316200  0.39615800  0.77242500  1
  C  145  1  0.35020900  0.42028000  0.78847100  1
  C  146  1  0.34734000  0.41983800  0.82386800  1
  C  149  1  0.37346500  0.39419400  0.87780300  1
  C  150  1  0.34145200  0.37045400  0.89522900  1
  C  151  1  0.34080800  0.37008100  0.93062400  1
  C  152  1  0.37388000  0.39335700  0.94779400  1
  C  153  1  0.40679200  0.41701700  0.93112200  1
  C  154  1  0.40587700  0.41699500  0.89589700  1
  C  161  1  0.93156400  0.94263700  0.94798300  1
  C  162  1  0.96266400  0.93159800  0.97558400  1
  C  163  1  0.98998400  0.95401500  0.99709300  1
  C  164  1  0.98702400  0.98881100  0.99030900  1
  C  165  1  0.95682800  0.99998600  0.96248400  1
  C  166  1  0.92908800  0.97728600  0.94187700  1
  C  168  1  0.01249900  0.01285300  0.01130800  1
  C  169  1  0.06980200  0.01599100  0.00974200  1
  C  170  1  0.09792600  0.03648600  0.03229500  1
  C  171  1  0.06928900  0.05503000  0.05646000  1
  C  172  1  0.01191000  0.05285500  0.05739800  1
  C  173  1  0.98289200  0.03175700  0.03532100  1
  C  178  1  0.01941200  0.94068500  0.02671200  1
  C  183  1  0.92269700  0.02880900  0.03870200  1
  C  187  1  0.43749800  0.84670000  0.26679400  1
  C  188  1  0.46883800  0.85703100  0.23902700  1
  C  189  1  0.49603800  0.83405400  0.21804700  1
  C  190  1  0.49271000  0.79941700  0.22555200  1
  C  191  1  0.46215100  0.78894200  0.25349700  1
  C  192  1  0.43454900  0.81218100  0.27356100  1
  C  194  1  0.51818600  0.77482800  0.20517900  1
  C  195  1  0.57546300  0.77160700  0.20696800  1
  C  196  1  0.60367000  0.75075900  0.18477800  1
  C  197  1  0.57513300  0.73186700  0.16084000  1
  C  198  1  0.51776200  0.73404200  0.15977100  1
  C  199  1  0.48866600  0.75550400  0.18146200  1
  C  204  1  0.52574500  0.84664800  0.18821100  1
  C  209  1  0.42850900  0.75848000  0.17787200  1
  C  213  1  0.81276600  0.34775100  0.44803200  1
  C  214  1  0.77986900  0.35867000  0.47487500  1
  C  215  1  0.75226300  0.33609000  0.49607800  1
  C  216  1  0.75678800  0.30127900  0.48969000  1
  C  217  1  0.78839800  0.29024700  0.46240600  1
  C  218  1  0.81641500  0.31310700  0.44214000  1
  C  220  1  0.73235000  0.27704000  0.51090700  1
  C  221  1  0.67527800  0.27268100  0.50915000  1
  C  222  1  0.64806200  0.25197400  0.53192800  1
  C  223  1  0.67749700  0.23443300  0.55647300  1
  C  224  1  0.73467600  0.23784900  0.55765900  1
  C  225  1  0.76273800  0.25917700  0.53535500  1
  C  230  1  0.72126800  0.34927700  0.52515600  1
  C  235  1  0.82268800  0.26346700  0.53899400  1
  C  239  1  0.32076500  0.44372800  0.76846200  1
  C  240  1  0.29036100  0.43283600  0.74051500  1
  C  241  1  0.26413200  0.45537700  0.71863200  1
  C  242  1  0.26744600  0.49016600  0.72538600  1
  C  243  1  0.29680900  0.50120000  0.75360300  1
  C  244  1  0.32349900  0.47836400  0.77458600  1
  C  246  1  0.24321800  0.51432700  0.70396200  1
  C  247  1  0.18592900  0.51786400  0.70472000  1
  C  248  1  0.15901400  0.53843800  0.68169000  1
  C  249  1  0.18888400  0.55660500  0.65780600  1
  C  250  1  0.24621500  0.55400600  0.65760900  1
  C  251  1  0.27402900  0.53287300  0.68023400  1
  C  256  1  0.23552500  0.44217000  0.68865600  1
  C  261  1  0.33428200  0.52954000  0.67774200  1
  C  265  1  0.56720700  0.23666000  0.65812200  1
  C  266  1  0.57656600  0.23066600  0.69241700  1
  C  267  1  0.55299400  0.25089000  0.71755500  1
  C  268  1  0.51875400  0.27782800  0.70791500  1
  C  269  1  0.50798800  0.28327400  0.67376700  1
  C  270  1  0.53198900  0.26308000  0.64928400  1
  C  272  1  0.49581600  0.30062100  0.73117600  1
  C  273  1  0.44586800  0.29215100  0.74650700  1
  C  274  1  0.41895800  0.31494900  0.76738800  1
  C  275  1  0.44127800  0.34681200  0.77313300  1
  C  276  1  0.49145600  0.35521900  0.75816400  1
  C  277  1  0.51945600  0.33246100  0.73732700  1
  C  282  1  0.56537200  0.24416200  0.75322600  1
  C  287  1  0.57227000  0.34248000  0.72208900  1
  C  291  1  0.18873000  0.73568500  0.55691700  1
  C  292  1  0.17317600  0.73377100  0.52303000  1
  C  293  1  0.19646800  0.75484600  0.49851800  1
  C  294  1  0.23654100  0.77848100  0.50842700  1
  C  295  1  0.25301600  0.77988500  0.54214700  1
  C  296  1  0.22925200  0.75890900  0.56606900  1
  C  298  1  0.25926300  0.80223900  0.48605800  1
  C  299  1  0.30406200  0.79254600  0.46617400  1
  C  300  1  0.33053200  0.81571500  0.44548000  1
  C  301  1  0.31327500  0.84924000  0.44460500  1
  C  302  1  0.26802500  0.85884100  0.46410500  1
  C  303  1  0.24028000  0.83576100  0.48470500  1
  C  308  1  0.17765600  0.75253100  0.46334000  1
  C  313  1  0.19249800  0.84712200  0.50453900  1
  C  317  1  0.69329600  0.55462600  0.15445900  1
  C  318  1  0.68729800  0.56184400  0.18882200  1
  C  319  1  0.71281300  0.54236400  0.21383500  1
  C  320  1  0.74539600  0.51472600  0.20404300  1
  C  321  1  0.75270300  0.50789900  0.16981200  1
  C  322  1  0.72710800  0.52754400  0.14546900  1
  C  324  1  0.76975600  0.49255600  0.22736600  1
  C  325  1  0.82341800  0.49928800  0.23822500  1
  C  326  1  0.85091200  0.47693600  0.25931700  1
  C  327  1  0.82511000  0.44747900  0.27012600  1
  C  328  1  0.77137700  0.44079400  0.25955900  1
  C  329  1  0.74314600  0.46289400  0.23813200  1
  C  334  1  0.70472800  0.55087300  0.24959700  1
  C  339  1  0.68716200  0.45423800  0.22678700  1
  C  343  1  0.43586800  0.94533900  0.44878200  1
  C  344  1  0.46535200  0.93428700  0.47703800  1
  C  345  1  0.49174800  0.95664900  0.49902400  1
  C  346  1  0.48984200  0.99142000  0.49196300  1
  C  347  1  0.46161400  0.00259200  0.46337000  1
  C  348  1  0.43450600  0.97995800  0.44237700  1
  C  350  1  0.51421400  0.01544700  0.51348400  1
  C  351  1  0.57168800  0.01769800  0.51397300  1
  C  352  1  0.59844200  0.03798700  0.53731900  1
  C  353  1  0.56829800  0.05728400  0.56016400  1
  C  354  1  0.51086900  0.05608000  0.55899500  1
  C  355  1  0.48315500  0.03512500  0.53616500  1
  C  360  1  0.51885400  0.94328000  0.52945300  1
  C  365  1  0.42263600  0.03311500  0.53746900  1
  C  369  1  0.94227600  0.84659800  0.76731600  1
  C  370  1  0.97408000  0.85764900  0.74002700  1
  C  371  1  0.00163000  0.83523300  0.71862000  1
  C  372  1  0.99843600  0.80041700  0.72530200  1
  C  373  1  0.96803600  0.78926300  0.75305200  1
  C  374  1  0.93985200  0.81194700  0.77343400  1
  C  376  1  0.02315400  0.77628800  0.70403200  1
  C  377  1  0.08051800  0.77323000  0.70468000  1
  C  378  1  0.10774800  0.75271300  0.68173500  1
  C  379  1  0.07814700  0.73392500  0.65819900  1
  C  380  1  0.02074400  0.73594200  0.65823700  1
  C  381  1  0.99260800  0.75717200  0.68061600  1
  C  386  1  0.03111000  0.84859500  0.68903000  1
  C  391  1  0.93229300  0.76010300  0.67802100  1
  C  395  1  0.30901400  0.34684200  0.94953100  1
  C  396  1  0.27758900  0.35764100  0.97708400  1
  C  397  1  0.25052000  0.33502300  0.99851300  1
  C  398  1  0.25384400  0.30025400  0.99160500  1
  C  399  1  0.28388900  0.28935200  0.96361000  1
  C  400  1  0.31154100  0.31223500  0.94317000  1
  C  402  1  0.22951600  0.27593100  0.01282600  1
  C  403  1  0.17216900  0.27273300  0.01238400  1
  C  404  1  0.14532200  0.25195700  0.03526400  1
  C  405  1  0.17528100  0.23302300  0.05851500  1
  C  406  1  0.23267700  0.23515500  0.05822800  1
  C  407  1  0.26043500  0.25666700  0.03593500  1
  C  412  1  0.22141000  0.34812000  0.02835200  1
  C  417  1  0.32076000  0.25970300  0.03829000  1
  C  421  1  0.06256000  0.23266400  0.15898200  1
  C  422  1  0.07704000  0.23066600  0.19304100  1
  C  423  1  0.05312000  0.25176200  0.21731800  1
  C  424  1  0.01347300  0.27550000  0.20700000  1
  C  425  1  0.99781800  0.27685600  0.17314000  1
  C  426  1  0.02217300  0.25584700  0.14946900  1
  C  428  1  0.99108900  0.29973800  0.22899200  1
  C  429  1  0.94553000  0.29088300  0.24862400  1
  C  430  1  0.91992400  0.31453300  0.26919900  1
  C  431  1  0.93874000  0.34773900  0.27011600  1
  C  432  1  0.98461800  0.35652200  0.25078300  1
  C  433  1  0.01154300  0.33293900  0.23035500  1
  C  438  1  0.07098200  0.24944200  0.25268000  1
  C  443  1  0.06020200  0.34342500  0.21083000  1
  C  447  1  0.68624200  0.73534100  0.05950300  1
  C  448  1  0.67750900  0.72909300  0.02518600  1
  C  449  1  0.70079400  0.74945300  0.00006100  1
  C  450  1  0.73413400  0.77680400  0.00971300  1
  C  451  1  0.74426400  0.78254200  0.04388800  1
  C  452  1  0.72053100  0.76220900  0.06836400  1
  C  454  1  0.75684500  0.79964900  0.98640600  1
  C  455  1  0.80717200  0.79150700  0.97135900  1
  C  456  1  0.83369600  0.81432200  0.95031100  1
  C  457  1  0.81059500  0.84588500  0.94409200  1
  C  458  1  0.76010600  0.85399500  0.95882700  1
  C  459  1  0.73249300  0.83120500  0.97982800  1
  C  464  1  0.68907600  0.74239700  0.96436500  1
  C  469  1  0.67930000  0.84088600  0.99478500  1
  C  473  1  0.43904600  0.44037300  0.94963800  1
  C  474  1  0.46756800  0.43044600  0.97867900  1
  C  475  1  0.49607400  0.45341600  0.99899700  1
  C  476  1  0.49706400  0.48761100  0.98952800  1
  C  477  1  0.47011400  0.49761600  0.96007400  1
  C  478  1  0.44137400  0.47441100  0.94057300  1
  C  480  1  0.52282000  0.51232800  0.00957400  1
  C  481  1  0.58032600  0.51400300  0.00929900  1
  C  482  1  0.60829400  0.53501400  0.03144900  1
  C  483  1  0.57942600  0.55547600  0.05393300  1
  C  484  1  0.52192000  0.55472800  0.05346000  1
  C  485  1  0.49297200  0.53320400  0.03176500  1
  C  490  1  0.52259600  0.44139500  0.03016500  1
  C  495  1  0.43245400  0.53188800  0.03371900  1
  C  499  1  0.81255400  0.94028400  0.76710400  1
  C  500  1  0.78465800  0.93073800  0.73770600  1
  C  501  1  0.75708200  0.95402200  0.71726400  1
  C  502  1  0.75634800  0.98815300  0.72697400  1
  C  503  1  0.78259000  0.99777100  0.75679800  1
  C  504  1  0.81040800  0.97425500  0.77643000  1
  C  506  1  0.73154400  0.01316900  0.70683600  1
  C  507  1  0.67406200  0.01508500  0.70641900  1
  C  508  1  0.64706000  0.03634600  0.68406000  1
  C  509  1  0.67689000  0.05685500  0.66210200  1
  C  510  1  0.73435000  0.05591600  0.66330400  1
  C  511  1  0.76234400  0.03411600  0.68519400  1
  C  516  1  0.73132400  0.94238500  0.68571300  1
  C  521  1  0.82289900  0.03257900  0.68398800  1
  C  525  1  0.18487200  0.05357400  0.15603500  1
  C  526  1  0.17710200  0.05942700  0.19050500  1
  C  527  1  0.20202400  0.03919700  0.21515700  1
  C  528  1  0.23611500  0.01242300  0.20486200  1
  C  529  1  0.24536700  0.00716500  0.17051900  1
  C  530  1  0.22001400  0.02734300  0.14652500  1
  C  532  1  0.26024600  0.98959600  0.22766800  1
  C  533  1  0.31062000  0.99820900  0.24239500  1
  C  534  1  0.33829800  0.97555600  0.26307000  1
  C  535  1  0.31639400  0.94365100  0.26918400  1
  C  536  1  0.26587300  0.93506300  0.25476600  1
  C  537  1  0.23709700  0.95767800  0.23415700  1
  C  542  1  0.19112400  0.04573000  0.25104700  1
  C  547  1  0.18385100  0.94749700  0.21960800  1
  C  551  1  0.94275600  0.44124800  0.44937800  1
  C  552  1  0.96960000  0.43139300  0.47905000  1
  C  553  1  0.99725800  0.45433800  0.49983100  1
  C  554  1  0.99949600  0.48844600  0.49011600  1
  C  555  1  0.97451600  0.49834300  0.45997600  1
  C  556  1  0.94632400  0.47519200  0.44010100  1
  C  558  1  0.02465400  0.51315300  0.51050900  1
  C  559  1  0.08215100  0.51361200  0.51232300  1
  C  560  1  0.10915000  0.53437300  0.53514600  1
  C  561  1  0.07941900  0.55591000  0.55615600  1
  C  562  1  0.02207700  0.55652800  0.55345000  1
  C  563  1  0.99400600  0.53516100  0.53116300  1
  C  568  1  0.02138800  0.44236700  0.53174600  1
  C  573  1  0.93336000  0.53516300  0.53099800  1
  H  7  1  0.17384400  0.12003600  0.15086800  1
  H  8  1  0.12810500  0.03012600  0.10478600  1
  H  15  1  0.11717900  0.25702100  0.10814900  1
  H  16  1  0.17172600  0.16707100  0.06642200  1
  H  19  1  0.08843000  0.12707700  0.03942500  1
  H  20  1  0.09065500  0.15560800  0.17613000  1
  H  27  1  0.67867400  0.66882400  0.06478500  1
  H  28  1  0.63069200  0.75777000  0.11175100  1
  H  35  1  0.63734000  0.53094400  0.10279500  1
  H  36  1  0.68149600  0.62101100  0.14900600  1
  H  39  1  0.59882100  0.65998400  0.17765200  1
  H  40  1  0.59852400  0.62770500  0.03692800  1
  H  47  1  0.57653000  0.17021600  0.65272600  1
  H  48  1  0.62179200  0.25976500  0.60581500  1
  H  55  1  0.62207300  0.03263200  0.61145700  1
  H  56  1  0.57610200  0.12312900  0.56690900  1
  H  59  1  0.65650800  0.16291400  0.53947200  1
  H  60  1  0.65496200  0.12842400  0.68035900  1
  H  67  1  0.08464400  0.62201800  0.56352600  1
  H  68  1  0.13504200  0.53182800  0.60709600  1
  H  75  1  0.13444600  0.75905300  0.60838400  1
  H  76  1  0.08399300  0.66805900  0.64989000  1
  H  79  1  0.16512100  0.62754800  0.67647800  1
  H  80  1  0.16412600  0.65920600  0.53922100  1
  H  87  1  0.32874800  0.93813800  0.33488300  1
  H  88  1  0.37265000  0.89408500  0.24396600  1
  H  95  1  0.36891100  0.89873400  0.47042600  1
  H  96  1  0.32761200  0.85508700  0.37889900  1
  H  99  1  0.41978000  0.83241900  0.34778900  1
  H  100  1  0.42049400  0.96040500  0.36748600  1
  H  107  1  0.82358800  0.85202400  0.87837100  1
  H  108  1  0.86590900  0.89534700  0.96995300  1
  H  115  1  0.87790400  0.89310600  0.74350100  1
  H  116  1  0.82049600  0.93284700  0.83366000  1
  H  119  1  0.91429900  0.95788300  0.86674900  1
  H  120  1  0.92070400  0.83123000  0.84805900  1
  H  127  1  0.93457600  0.43457300  0.38263700  1
  H  128  1  0.87660000  0.39412500  0.47239000  1
  H  135  1  0.88412200  0.39891200  0.24565100  1
  H  136  1  0.92707800  0.35284300  0.33607500  1
  H  139  1  0.83425400  0.33259500  0.36797000  1
  H  140  1  0.84754400  0.46542100  0.34330700  1
  H  147  1  0.42677800  0.35273600  0.83873000  1
  H  148  1  0.38662400  0.39638800  0.74695500  1
  H  155  1  0.37367100  0.39322500  0.97331300  1
  H  156  1  0.43001200  0.43345700  0.88312600  1
  H  159  1  0.33654300  0.45875700  0.84988600  1
  H  160  1  0.32955100  0.33200200  0.86863600  1
  H  167  1  0.90578200  0.98645500  0.92284500  1
  H  174  1  0.09185300  0.00235700  0.99289800  1
  H  175  1  0.13957300  0.03734200  0.03129300  1
  H  176  1  0.99124200  0.06573200  0.07545600  1
  H  177  1  0.96510400  0.90655700  0.98028700  1
  H  179  1  0.01543600  0.91369300  0.02922600  1
  H  180  1  0.00322300  0.95199600  0.04938500  1
  H  181  1  0.06271900  0.94640300  0.02482100  1
  H  182  1  0.95375300  0.02492800  0.95739900  1
  H  184  1  0.91161400  0.00294300  0.04370000  1
  H  185  1  0.90300400  0.03682700  0.01569100  1
  H  186  1  0.90647500  0.04404900  0.05895000  1
  H  193  1  0.41092600  0.80348000  0.29266500  1
  H  200  1  0.59748100  0.78563000  0.22350800  1
  H  201  1  0.64533200  0.75010300  0.18569000  1
  H  202  1  0.49719200  0.72102500  0.14177300  1
  H  203  1  0.47159400  0.88196000  0.23382000  1
  H  205  1  0.52200600  0.87359100  0.18510200  1
  H  206  1  0.50959200  0.83489900  0.16575300  1
  H  207  1  0.56899500  0.84084100  0.19031800  1
  H  208  1  0.45876600  0.76412500  0.25909000  1
  H  210  1  0.41756100  0.78426400  0.17235700  1
  H  211  1  0.40863400  0.75093100  0.20098300  1
  H  212  1  0.41235200  0.74288300  0.15788100  1
  H  219  1  0.84125200  0.30404800  0.42378600  1
  H  226  1  0.65266000  0.28566100  0.49207200  1
  H  227  1  0.60648000  0.25033900  0.53089900  1
  H  228  1  0.75581200  0.22572300  0.57603300  1
  H  229  1  0.77687400  0.38370600  0.47948600  1
  H  231  1  0.72404000  0.37634600  0.52741400  1
  H  232  1  0.73709600  0.33846500  0.54816600  1
  H  233  1  0.67828700  0.34286600  0.52275100  1
  H  234  1  0.79273600  0.26530100  0.45768800  1
  H  236  1  0.83223000  0.28964200  0.54356200  1
  H  237  1  0.84317000  0.25544600  0.51624400  1
  H  238  1  0.83946800  0.24896300  0.55960600  1
  H  245  1  0.34637900  0.48742900  0.79386200  1
  H  252  1  0.16301700  0.50445700  0.72131600  1
  H  253  1  0.11735800  0.53957700  0.68209900  1
  H  254  1  0.26775600  0.56672200  0.63981800  1
  H  255  1  0.28775800  0.40780500  0.73578200  1
  H  257  1  0.23912300  0.41515000  0.68624600  1
  H  258  1  0.25269500  0.45332600  0.66617700  1
  H  259  1  0.19226100  0.44817200  0.68996500  1
  H  260  1  0.30016400  0.52613100  0.75866500  1
  H  262  1  0.34512900  0.50357700  0.67306100  1
  H  263  1  0.35320700  0.53758100  0.70098600  1
  H  264  1  0.35152800  0.54455700  0.65764600  1
  H  271  1  0.52370600  0.26806000  0.62477900  1
  H  278  1  0.42781000  0.26962300  0.74181600  1
  H  279  1  0.38187800  0.30862600  0.77720500  1
  H  280  1  0.50716400  0.37856200  0.76198900  1
  H  281  1  0.60269400  0.21195800  0.69917200  1
  H  283  1  0.59260200  0.22290300  0.75654900  1
  H  284  1  0.58482600  0.26591200  0.76441200  1
  H  285  1  0.52772400  0.23883200  0.76666300  1
  H  286  1  0.48342400  0.30253000  0.66633400  1
  H  288  1  0.60393800  0.32475700  0.72917700  1
  H  289  1  0.56867400  0.34277900  0.69499200  1
  H  290  1  0.58550600  0.36722200  0.73003000  1
  H  297  1  0.24122900  0.76111000  0.59041400  1
  H  304  1  0.31878600  0.76868600  0.46728600  1
  H  305  1  0.36415400  0.80828800  0.43234000  1
  H  306  1  0.25565200  0.88321900  0.46360500  1
  H  307  1  0.14273900  0.71765700  0.51634800  1
  H  309  1  0.14641700  0.73348200  0.45982100  1
  H  310  1  0.16059800  0.77637300  0.45544000  1
  H  311  1  0.21194700  0.74630000  0.44720000  1
  H  312  1  0.28153200  0.79688800  0.54978800  1
  H  314  1  0.15692000  0.83208000  0.49824100  1
  H  315  1  0.20096400  0.84446500  0.53109600  1
  H  316  1  0.18216400  0.87318200  0.49989600  1
  H  323  1  0.73326700  0.52167200  0.12093300  1
  H  330  1  0.84350200  0.52015400  0.23015500  1
  H  331  1  0.89030600  0.48190900  0.26603900  1
  H  332  1  0.75320000  0.41900300  0.26687400  1
  H  333  1  0.66231600  0.58102500  0.19584300  1
  H  335  1  0.67892600  0.57276800  0.25304600  1
  H  336  1  0.68559800  0.53004900  0.26258400  1
  H  337  1  0.74403600  0.55606700  0.26118600  1
  H  338  1  0.77604000  0.48812200  0.16226700  1
  H  340  1  0.65875400  0.47384600  0.23403600  1
  H  341  1  0.68652600  0.45169100  0.19971300  1
  H  342  1  0.67249800  0.43086000  0.23745100  1
  H  349  1  0.41227400  0.98918900  0.42290400  1
  H  356  1  0.59475400  0.00351500  0.49812100  1
  H  357  1  0.64013600  0.03815400  0.53785200  1
  H  358  1  0.48905600  0.06959100  0.57606100  1
  H  359  1  0.46701000  0.90926900  0.48198600  1
  H  361  1  0.51388500  0.91636500  0.53212500  1
  H  362  1  0.50158000  0.95498900  0.55162000  1
  H  363  1  0.56241800  0.94847200  0.52855600  1
  H  364  1  0.45926000  0.02751800  0.45807100  1
  H  366  1  0.41004600  0.00746500  0.54223700  1
  H  367  1  0.40542300  0.04126200  0.51377100  1
  H  368  1  0.40519600  0.04874400  0.55702600  1
  H  375  1  0.91586700  0.80271200  0.79212000  1
  H  382  1  0.10324400  0.78699500  0.72107500  1
  H  383  1  0.14943200  0.75203200  0.68197200  1
  H  384  1  0.99936600  0.72297400  0.64055300  1
  H  385  1  0.97636000  0.88268500  0.73525600  1
  H  387  1  0.02706000  0.87557900  0.68650300  1
  H  388  1  0.01503800  0.83726400  0.66633400  1
  H  389  1  0.07442900  0.84293900  0.69097700  1
  H  390  1  0.96466600  0.76431500  0.75803600  1
  H  392  1  0.92101100  0.78596900  0.67319300  1
  H  393  1  0.91338600  0.75204000  0.70125800  1
  H  394  1  0.91537400  0.74488900  0.65796800  1
  H  401  1  0.33535700  0.30317300  0.92432300  1
  H  408  1  0.14917000  0.28661300  0.99623000  1
  H  409  1  0.10364000  0.25116400  0.03516800  1
  H  410  1  0.25434400  0.22204000  0.07566800  1
  H  411  1  0.27525900  0.38263700  0.98203900  1
  H  413  1  0.22530400  0.37510300  0.03102100  1
  H  414  1  0.23791500  0.33669800  0.05088300  1
  H  415  1  0.17810100  0.34236000  0.02662200  1
  H  416  1  0.28733800  0.26444400  0.95844900  1
  H  418  1  0.33195000  0.28554900  0.04330000  1
  H  419  1  0.33943900  0.25189200  0.01489800  1
  H  420  1  0.33800100  0.24434700  0.05813000  1
  H  427  1  0.01096800  0.25814800  0.12499700  1
  H  434  1  0.92988200  0.26724500  0.24758600  1
  H  435  1  0.88605400  0.30766900  0.28240400  1
  H  436  1  0.99834700  0.38062600  0.25148100  1
  H  437  1  0.10737900  0.21461500  0.20002200  1
  H  439  1  0.10186800  0.23024500  0.25654800  1
  H  440  1  0.08813700  0.27321400  0.26070800  1
  H  441  1  0.03618100  0.24341100  0.26848600  1
  H  442  1  0.96971400  0.29397300  0.16518300  1
  H  444  1  0.09499300  0.32784500  0.21745700  1
  H  445  1  0.05214300  0.34077800  0.18422600  1
  H  446  1  0.07157400  0.36933300  0.21542700  1
  H  453  1  0.72839000  0.76738500  0.09287900  1
  H  460  1  0.82575200  0.76920700  0.97636400  1
  H  461  1  0.87104400  0.80825300  0.94071500  1
  H  462  1  0.74383200  0.87713500  0.95466500  1
  H  463  1  0.65202100  0.71007100  0.01839700  1
  H  465  1  0.66248400  0.72084000  0.96103100  1
  H  466  1  0.66916800  0.76387900  0.95296500  1
  H  467  1  0.72704000  0.73738500  0.95114300  1
  H  468  1  0.76818000  0.80209400  0.05133700  1
  H  470  1  0.64813200  0.82280600  0.98776600  1
  H  471  1  0.68264100  0.84148400  0.02188800  1
  H  472  1  0.66554100  0.86542600  0.98655500  1
  H  479  1  0.42051000  0.48294000  0.92021000  1
  H  486  1  0.60250900  0.49888200  0.99384800  1
  H  487  1  0.64999200  0.53474700  0.03151100  1
  H  488  1  0.50093700  0.56890500  0.07037000  1
  H  489  1  0.46729500  0.40582900  0.98537100  1
  H  491  1  0.51605200  0.41483400  0.03454000  1
  H  492  1  0.50624800  0.45487400  0.05157400  1
  H  493  1  0.56643800  0.44555500  0.02884100  1
  H  494  1  0.46997900  0.52214500  0.95301000  1
  H  496  1  0.41931200  0.50665800  0.03994300  1
  H  497  1  0.41489000  0.53894200  0.00976300  1
  H  498  1  0.41592200  0.54871200  0.05257100  1
  H  505  1  0.83093100  0.98253000  0.79702500  1
  H  512  1  0.65120600  0.99987400  0.72141100  1
  H  513  1  0.60537200  0.03617700  0.68340500  1
  H  514  1  0.75601400  0.07016500  0.64677700  1
  H  515  1  0.78480200  0.90617800  0.73080700  1
  H  517  1  0.73764200  0.91582600  0.68119400  1
  H  518  1  0.74848400  0.95594600  0.66459500  1
  H  519  1  0.68750800  0.94675400  0.68658300  1
  H  520  1  0.78290000  0.02224500  0.76404600  1
  H  522  1  0.83599000  0.00734500  0.67773700  1
  H  523  1  0.83972800  0.03938200  0.70821400  1
  H  524  1  0.84022500  0.04947800  0.66547700  1
  H  531  1  0.22717400  0.02245100  0.12187200  1
  H  538  1  0.32832400  0.02079300  0.23748800  1
  H  539  1  0.37552900  0.98205100  0.27255100  1
  H  540  1  0.25032800  0.91174400  0.25896800  1
  H  541  1  0.15097900  0.07794500  0.19777200  1
  H  543  1  0.16382100  0.06686400  0.25490300  1
  H  544  1  0.17239300  0.02385700  0.26245000  1
  H  545  1  0.22928000  0.05116000  0.26389300  1
  H  546  1  0.26978800  0.98803800  0.16259600  1
  H  548  1  0.15229000  0.96512800  0.22708900  1
  H  549  1  0.18652700  0.94719300  0.19247100  1
  H  550  1  0.17109000  0.92272000  0.22772500  1
  H  557  1  0.92670500  0.48373000  0.41929000  1
  H  564  1  0.10489800  0.49772500  0.49798700  1
  H  565  1  0.15072500  0.53317900  0.53673600  1
  H  566  1  0.00036700  0.57160900  0.56919400  1
  H  567  1  0.96861100  0.40683800  0.48592600  1
  H  569  1  0.01356900  0.41596500  0.53630700  1
  H  570  1  0.00424000  0.45634700  0.55259200  1
  H  571  1  0.06542400  0.44587600  0.53140500  1
  H  572  1  0.97530600  0.52279800  0.45268000  1
  H  574  1  0.91820000  0.51032400  0.53708500  1
  H  575  1  0.91846200  0.54222900  0.50638400  1
  H  576  1  0.91608400  0.55260500  0.54901800  1
  O  17  1  0.06622700  0.12590600  0.05979500  1
  O  18  1  0.06516200  0.16139700  0.15814900  1
  O  37  1  0.57567400  0.66082100  0.15766300  1
  O  38  1  0.57591900  0.62655900  0.05713300  1
  O  57  1  0.67931000  0.16353300  0.55961800  1
  O  58  1  0.67835200  0.12802600  0.66046500  1
  O  77  1  0.18831000  0.62752800  0.65649200  1
  O  78  1  0.18930100  0.66453000  0.55750700  1
  O  97  1  0.44300000  0.84999800  0.33832800  1
  O  98  1  0.44311800  0.94265400  0.37716100  1
  O  117  1  0.93748200  0.94040600  0.87643700  1
  O  118  1  0.94319200  0.84934000  0.83893900  1
  O  137  1  0.81198800  0.35105400  0.37656800  1
  O  138  1  0.82361200  0.44590900  0.34096500  1
  O  157  1  0.31336800  0.44137500  0.84002100  1
  O  158  1  0.30711700  0.35005900  0.87790700  1
