# generated using pymatgen
data_Zn2H7C18N3O8
_symmetry_space_group_name_H-M   'P 1'
_cell_length_a   26.91586000
_cell_length_b   27.07949000
_cell_length_c   27.62067000
_cell_angle_alpha   89.97716000
_cell_angle_beta   89.99816000
_cell_angle_gamma   89.97582000
_symmetry_Int_Tables_number   1
_chemical_formula_structural   Zn2H7C18N3O8
_chemical_formula_sum   'Zn32 H112 C288 N48 O128'
_cell_volume   20131.81251729
_cell_formula_units_Z   16
loop_
 _symmetry_equiv_pos_site_id
 _symmetry_equiv_pos_as_xyz
  1  'x, y, z'
loop_
 _atom_site_type_symbol
 _atom_site_label
 _atom_site_symmetry_multiplicity
 _atom_site_fract_x
 _atom_site_fract_y
 _atom_site_fract_z
 _atom_site_occupancy
  Zn  Zn1  1  0.77415000  0.46375000  0.72504000  1.0
  Zn  Zn2  1  0.70606000  0.43423000  0.81078000  1.0
  Zn  Zn3  1  0.05636000  0.27788000  0.20618000  1.0
  Zn  Zn4  1  0.04885000  0.29375000  0.79370000  1.0
  Zn  Zn5  1  0.72614000  0.03609000  0.72521000  1.0
  Zn  Zn6  1  0.79395000  0.06613000  0.81101000  1.0
  Zn  Zn7  1  0.44386000  0.22369000  0.20612000  1.0
  Zn  Zn8  1  0.45121000  0.20591000  0.79364000  1.0
  Zn  Zn9  1  0.27381000  0.53630000  0.77324000  1.0
  Zn  Zn10  1  0.20591000  0.56606000  0.68840000  1.0
  Zn  Zn11  1  0.55636000  0.72165000  0.29407000  1.0
  Zn  Zn12  1  0.54890000  0.70631000  0.70617000  1.0
  Zn  Zn13  1  0.22578000  0.96376000  0.77326000  1.0
  Zn  Zn14  1  0.29391000  0.93372000  0.68800000  1.0
  Zn  Zn15  1  0.94365000  0.77667000  0.29336000  1.0
  Zn  Zn16  1  0.95090000  0.79376000  0.70604000  1.0
  Zn  Zn17  1  0.22574000  0.53625000  0.27318000  1.0
  Zn  Zn18  1  0.29393000  0.56648000  0.18768000  1.0
  Zn  Zn19  1  0.94369000  0.72322000  0.79201000  1.0
  Zn  Zn20  1  0.95057000  0.70614000  0.20611000  1.0
  Zn  Zn21  1  0.27373000  0.96365000  0.27490000  1.0
  Zn  Zn22  1  0.20617000  0.93406000  0.18935000  1.0
  Zn  Zn23  1  0.55631000  0.77859000  0.79400000  1.0
  Zn  Zn24  1  0.54885000  0.79376000  0.20618000  1.0
  Zn  Zn25  1  0.72582000  0.46370000  0.22637000  1.0
  Zn  Zn26  1  0.79343000  0.43358000  0.31094000  1.0
  Zn  Zn27  1  0.44403000  0.27649000  0.70566000  1.0
  Zn  Zn28  1  0.44843000  0.29583000  0.29402000  1.0
  Zn  Zn29  1  0.77417000  0.03624000  0.22511000  1.0
  Zn  Zn30  1  0.70628000  0.06587000  0.31060000  1.0
  Zn  Zn31  1  0.05634000  0.22156000  0.70593000  1.0
  Zn  Zn32  1  0.04893000  0.20600000  0.29366000  1.0
  H  H1  1  0.89932000  0.36880000  0.78302000  1.0
  H  H2  1  0.96496000  0.35693000  0.92461000  1.0
  H  H3  1  0.81998000  0.42321000  0.90795000  1.0
  H  H4  1  0.92981000  0.34203000  0.00620000  1.0
  H  H5  1  0.96136000  0.34646000  0.09511000  1.0
  H  H6  1  0.90221000  0.34752000  0.23943000  1.0
  H  H7  1  0.82152000  0.41890000  0.12381000  1.0
  H  H8  1  0.84250000  0.61663000  0.73411000  1.0
  H  H9  1  0.90980000  0.68731000  0.61036000  1.0
  H  H10  1  0.83590000  0.54680000  0.59462000  1.0
  H  H11  1  0.83596000  0.57111000  0.49984000  1.0
  H  H12  1  0.85413000  0.53310000  0.42398000  1.0
  H  H13  1  0.86720000  0.58480000  0.27722000  1.0
  H  H14  1  0.91983000  0.67547000  0.39519000  1.0
  H  H15  1  0.60144000  0.13101000  0.78319000  1.0
  H  H16  1  0.53457000  0.14299000  0.92422000  1.0
  H  H17  1  0.67986000  0.07721000  0.90903000  1.0
  H  H18  1  0.56953000  0.15809000  0.00623000  1.0
  H  H19  1  0.53798000  0.15373000  0.09510000  1.0
  H  H20  1  0.59756000  0.15243000  0.23925000  1.0
  H  H21  1  0.67813000  0.08169000  0.12323000  1.0
  H  H22  1  0.65666000  0.88351000  0.73449000  1.0
  H  H23  1  0.58941000  0.81316000  0.61064000  1.0
  H  H24  1  0.66439000  0.95311000  0.59489000  1.0
  H  H25  1  0.66396000  0.92875000  0.49992000  1.0
  H  H26  1  0.64586000  0.96642000  0.42392000  1.0
  H  H27  1  0.63206000  0.91428000  0.27746000  1.0
  H  H28  1  0.57992000  0.82394000  0.39593000  1.0
  H  H29  1  0.39821000  0.63217000  0.71635000  1.0
  H  H30  1  0.46564000  0.64299000  0.57538000  1.0
  H  H31  1  0.32013000  0.57774000  0.59071000  1.0
  H  H32  1  0.43002000  0.65783000  0.49287000  1.0
  H  H33  1  0.46131000  0.65235000  0.40478000  1.0
  H  H34  1  0.40239000  0.65216000  0.26036000  1.0
  H  H35  1  0.32100000  0.58121000  0.37578000  1.0
  H  H36  1  0.34465000  0.38321000  0.76405000  1.0
  H  H37  1  0.41049000  0.31326000  0.88888000  1.0
  H  H38  1  0.33610000  0.45375000  0.90316000  1.0
  H  H39  1  0.33605000  0.42935000  0.99897000  1.0
  H  H40  1  0.35445000  0.46707000  0.07473000  1.0
  H  H41  1  0.36834000  0.41562000  0.22140000  1.0
  H  H42  1  0.42019000  0.32453000  0.10336000  1.0
  H  H43  1  0.10060000  0.86863000  0.71683000  1.0
  H  H44  1  0.03452000  0.85656000  0.57545000  1.0
  H  H45  1  0.17952000  0.92276000  0.59148000  1.0
  H  H46  1  0.06918000  0.84182000  0.49405000  1.0
  H  H47  1  0.03787000  0.84568000  0.40489000  1.0
  H  H48  1  0.09720000  0.84787000  0.26066000  1.0
  H  H49  1  0.17721000  0.91901000  0.37687000  1.0
  H  H50  1  0.15625000  0.11682000  0.76469000  1.0
  H  H51  1  0.08984000  0.18664000  0.88925000  1.0
  H  H52  1  0.16388000  0.04594000  0.90368000  1.0
  H  H53  1  0.16408000  0.07072000  0.99970000  1.0
  H  H54  1  0.14604000  0.03341000  0.07569000  1.0
  H  H55  1  0.13215000  0.08556000  0.22209000  1.0
  H  H56  1  0.07982000  0.17586000  0.10362000  1.0
  H  H57  1  0.10059000  0.63174000  0.21659000  1.0
  H  H58  1  0.03430000  0.64350000  0.07523000  1.0
  H  H59  1  0.17975000  0.57807000  0.09127000  1.0
  H  H60  1  0.06918000  0.65833000  0.99335000  1.0
  H  H61  1  0.03725000  0.65293000  0.90416000  1.0
  H  H62  1  0.09661000  0.65133000  0.75992000  1.0
  H  H63  1  0.17752000  0.58114000  0.87614000  1.0
  H  H64  1  0.15671000  0.38279000  0.26468000  1.0
  H  H65  1  0.09053000  0.31274000  0.38927000  1.0
  H  H66  1  0.16330000  0.45403000  0.40352000  1.0
  H  H67  1  0.16404000  0.42894000  0.49966000  1.0
  H  H68  1  0.14574000  0.46632000  0.57584000  1.0
  H  H69  1  0.13179000  0.41397000  0.72221000  1.0
  H  H70  1  0.07966000  0.32386000  0.60362000  1.0
  H  H71  1  0.39969000  0.86897000  0.21710000  1.0
  H  H72  1  0.46464000  0.85657000  0.07524000  1.0
  H  H73  1  0.31975000  0.92290000  0.09230000  1.0
  H  H74  1  0.42956000  0.84223000  0.99356000  1.0
  H  H75  1  0.46081000  0.84735000  0.90542000  1.0
  H  H76  1  0.40249000  0.84776000  0.76079000  1.0
  H  H77  1  0.32056000  0.91858000  0.87592000  1.0
  H  H78  1  0.34238000  0.11698000  0.26453000  1.0
  H  H79  1  0.40884000  0.18807000  0.38836000  1.0
  H  H80  1  0.33617000  0.04688000  0.40397000  1.0
  H  H81  1  0.33583000  0.07114000  0.49876000  1.0
  H  H82  1  0.35448000  0.03277000  0.57499000  1.0
  H  H83  1  0.36916000  0.08445000  0.72151000  1.0
  H  H84  1  0.41984000  0.17546000  0.60286000  1.0
  H  H85  1  0.59953000  0.36855000  0.28292000  1.0
  H  H86  1  0.53350000  0.35762000  0.42452000  1.0
  H  H87  1  0.67968000  0.42104000  0.40815000  1.0
  H  H88  1  0.56957000  0.34166000  0.50639000  1.0
  H  H89  1  0.53835000  0.34658000  0.59469000  1.0
  H  H90  1  0.59775000  0.34702000  0.73894000  1.0
  H  H91  1  0.67841000  0.41835000  0.62325000  1.0
  H  H92  1  0.65608000  0.61665000  0.23514000  1.0
  H  H93  1  0.58988000  0.68690000  0.11069000  1.0
  H  H94  1  0.66388000  0.54624000  0.09594000  1.0
  H  H95  1  0.66401000  0.57111000  0.99995000  1.0
  H  H96  1  0.64472000  0.53344000  0.92385000  1.0
  H  H97  1  0.63257000  0.58633000  0.77749000  1.0
  H  H98  1  0.58091000  0.67692000  0.89597000  1.0
  H  H99  1  0.89946000  0.13119000  0.28279000  1.0
  H  H100  1  0.96482000  0.14326000  0.42450000  1.0
  H  H101  1  0.81995000  0.07693000  0.40769000  1.0
  H  H102  1  0.92969000  0.15781000  0.50613000  1.0
  H  H103  1  0.96125000  0.15305000  0.59451000  1.0
  H  H104  1  0.90286000  0.15170000  0.73913000  1.0
  H  H105  1  0.82172000  0.08046000  0.62382000  1.0
  H  H106  1  0.84249000  0.88354000  0.23437000  1.0
  H  H107  1  0.90971000  0.81263000  0.11074000  1.0
  H  H108  1  0.83577000  0.95318000  0.09479000  1.0
  H  H109  1  0.83597000  0.92885000  0.99998000  1.0
  H  H110  1  0.85422000  0.96669000  0.92386000  1.0
  H  H111  1  0.86803000  0.91473000  0.77737000  1.0
  H  H112  1  0.91991000  0.82406000  0.89578000  1.0
  C  C1  1  0.81305000  0.41657000  0.81189000  1.0
  C  C2  1  0.85571000  0.39912000  0.84197000  1.0
  C  C3  1  0.89702000  0.37542000  0.82177000  1.0
  C  C4  1  0.93552000  0.35936000  0.85217000  1.0
  C  C5  1  0.97887000  0.33294000  0.83073000  1.0
  C  C6  1  0.93366000  0.36815000  0.90224000  1.0
  C  C7  1  0.89169000  0.39108000  0.92189000  1.0
  C  C8  1  0.85259000  0.40608000  0.89209000  1.0
  C  C9  1  0.90571000  0.37365000  0.01074000  1.0
  C  C10  1  0.88478000  0.39553000  0.05130000  1.0
  C  C11  1  0.88989000  0.38295000  0.10258000  1.0
  C  C12  1  0.93129000  0.35670000  0.11944000  1.0
  C  C13  1  0.93558000  0.34388000  0.16840000  1.0
  C  C14  1  0.98102000  0.31774000  0.18466000  1.0
  C  C15  1  0.89860000  0.35732000  0.20142000  1.0
  C  C16  1  0.85772000  0.38472000  0.18498000  1.0
  C  C17  1  0.81981000  0.40256000  0.21999000  1.0
  C  C18  1  0.85332000  0.39743000  0.13594000  1.0
  C  C19  1  0.80975000  0.53504000  0.68765000  1.0
  C  C20  1  0.83557000  0.57835000  0.66591000  1.0
  C  C21  1  0.85079000  0.61744000  0.69560000  1.0
  C  C22  1  0.87796000  0.65651000  0.67530000  1.0
  C  C23  1  0.89858000  0.69627000  0.70651000  1.0
  C  C24  1  0.88861000  0.65696000  0.62572000  1.0
  C  C25  1  0.87317000  0.61811000  0.59564000  1.0
  C  C26  1  0.84702000  0.57848000  0.61630000  1.0
  C  C27  1  0.88619000  0.62038000  0.54418000  1.0
  C  C28  1  0.86638000  0.59680000  0.50409000  1.0
  C  C29  1  0.88667000  0.60600000  0.41533000  1.0
  C  C30  1  0.86519000  0.56217000  0.39906000  1.0
  C  C31  1  0.85768000  0.55517000  0.34929000  1.0
  C  C32  1  0.83322000  0.50899000  0.33287000  1.0
  C  C33  1  0.87315000  0.59074000  0.31572000  1.0
  C  C34  1  0.89647000  0.63368000  0.33245000  1.0
  C  C35  1  0.91484000  0.67252000  0.29842000  1.0
  C  C36  1  0.90261000  0.64171000  0.38228000  1.0
  C  C37  1  0.68802000  0.08349000  0.81335000  1.0
  C  C38  1  0.64478000  0.10097000  0.84261000  1.0
  C  C39  1  0.60354000  0.12450000  0.82198000  1.0
  C  C40  1  0.56462000  0.14029000  0.85202000  1.0
  C  C41  1  0.52094000  0.16598000  0.83045000  1.0
  C  C42  1  0.56610000  0.13180000  0.90215000  1.0
  C  C43  1  0.60796000  0.10905000  0.92211000  1.0
  C  C44  1  0.64739000  0.09417000  0.89275000  1.0
  C  C45  1  0.59366000  0.12648000  0.01075000  1.0
  C  C46  1  0.61465000  0.10470000  0.05131000  1.0
  C  C47  1  0.60957000  0.11737000  0.10247000  1.0
  C  C48  1  0.56813000  0.14349000  0.11936000  1.0
  C  C49  1  0.56403000  0.15616000  0.16836000  1.0
  C  C50  1  0.51869000  0.18244000  0.18476000  1.0
  C  C51  1  0.60116000  0.14270000  0.20124000  1.0
  C  C52  1  0.64212000  0.11548000  0.18470000  1.0
  C  C53  1  0.68019000  0.09743000  0.21946000  1.0
  C  C54  1  0.64634000  0.10297000  0.13562000  1.0
  C  C55  1  0.69015000  0.96490000  0.68792000  1.0
  C  C56  1  0.66413000  0.92170000  0.66623000  1.0
  C  C57  1  0.64850000  0.88276000  0.69596000  1.0
  C  C58  1  0.62116000  0.84381000  0.67565000  1.0
  C  C59  1  0.60020000  0.80413000  0.70681000  1.0
  C  C60  1  0.61073000  0.84337000  0.62604000  1.0
  C  C61  1  0.62658000  0.88206000  0.59595000  1.0
  C  C62  1  0.65290000  0.92155000  0.61658000  1.0
  C  C63  1  0.61371000  0.87967000  0.54449000  1.0
  C  C64  1  0.63355000  0.90306000  0.50429000  1.0
  C  C65  1  0.61314000  0.89349000  0.41562000  1.0
  C  C66  1  0.63463000  0.93726000  0.39919000  1.0
  C  C67  1  0.64194000  0.94410000  0.34940000  1.0
  C  C68  1  0.66666667  0.99010000  0.33272000  1.0
  C  C69  1  0.62624000  0.90846000  0.31600000  1.0
  C  C70  1  0.60290000  0.86555000  0.33289000  1.0
  C  C71  1  0.58426000  0.82672000  0.29895000  1.0
  C  C72  1  0.59702000  0.85767000  0.38278000  1.0
  C  C73  1  0.31184000  0.58464000  0.68634000  1.0
  C  C74  1  0.35502000  0.60201000  0.65699000  1.0
  C  C75  1  0.39628000  0.62549000  0.67757000  1.0
  C  C76  1  0.43534000  0.64106000  0.64758000  1.0
  C  C77  1  0.47879000  0.66716000  0.66925000  1.0
  C  C78  1  0.43402000  0.63207000  0.59748000  1.0
  C  C79  1  0.39214000  0.60931000  0.57753000  1.0
  C  C80  1  0.35257000  0.59481000  0.60691000  1.0
  C  C81  1  0.40594000  0.62617000  0.48861000  1.0
  C  C82  1  0.38465000  0.60414000  0.44830000  1.0
  C  C83  1  0.38957000  0.61657000  0.39704000  1.0
  C  C84  1  0.43120000  0.64247000  0.38037000  1.0
  C  C85  1  0.43561000  0.65538000  0.33149000  1.0
  C  C86  1  0.48120000  0.68137000  0.31558000  1.0
  C  C87  1  0.39865000  0.64226000  0.29833000  1.0
  C  C88  1  0.35755000  0.61509000  0.31455000  1.0
  C  C89  1  0.31979000  0.59739000  0.27925000  1.0
  C  C90  1  0.35293000  0.60243000  0.36362000  1.0
  C  C91  1  0.31087000  0.46508000  0.80983000  1.0
  C  C92  1  0.33670000  0.42189000  0.83194000  1.0
  C  C93  1  0.35247000  0.38270000  0.80266000  1.0
  C  C94  1  0.37956000  0.34380000  0.82344000  1.0
  C  C95  1  0.40072000  0.30394000  0.79276000  1.0
  C  C96  1  0.38946000  0.34352000  0.87313000  1.0
  C  C97  1  0.37350000  0.38245000  0.90286000  1.0
  C  C98  1  0.34754000  0.42198000  0.88174000  1.0
  C  C99  1  0.38612000  0.38005000  0.95443000  1.0
  C  C100  1  0.36636000  0.40351000  0.99462000  1.0
  C  C101  1  0.38694000  0.39405000  0.08333000  1.0
  C  C102  1  0.36567000  0.43799000  0.09959000  1.0
  C  C103  1  0.35860000  0.44513000  0.14937000  1.0
  C  C104  1  0.33428000  0.49131000  0.16591000  1.0
  C  C105  1  0.37410000  0.40957000  0.18290000  1.0
  C  C106  1  0.39722000  0.36652000  0.16615000  1.0
  C  C107  1  0.41545000  0.32794000  0.20045000  1.0
  C  C108  1  0.40311000  0.35836000  0.11633000  1.0
  C  C109  1  0.18670000  0.91630000  0.68754000  1.0
  C  C110  1  0.14405000  0.89875000  0.65765000  1.0
  C  C111  1  0.10281000  0.87513000  0.67804000  1.0
  C  C112  1  0.06422000  0.85907000  0.64781000  1.0
  C  C113  1  0.02095000  0.83277000  0.66930000  1.0
  C  C114  1  0.06588000  0.86778000  0.59772000  1.0
  C  C115  1  0.10775000  0.89070000  0.57798000  1.0
  C  C116  1  0.14701000  0.90566000  0.60754000  1.0
  C  C117  1  0.09334000  0.87335000  0.48936000  1.0
  C  C118  1  0.11427000  0.89513000  0.44877000  1.0
  C  C119  1  0.10911000  0.88262000  0.39758000  1.0
  C  C120  1  0.06790000  0.85624000  0.38064000  1.0
  C  C121  1  0.06383000  0.84370000  0.33161000  1.0
  C  C122  1  0.01857000  0.81743000  0.31517000  1.0
  C  C123  1  0.10077000  0.85754000  0.29870000  1.0
  C  C124  1  0.14144000  0.88510000  0.31527000  1.0
  C  C125  1  0.17930000  0.90356000  0.28051000  1.0
  C  C126  1  0.14565000  0.89748000  0.36439000  1.0
  C  C127  1  0.18927000  0.03481000  0.81027000  1.0
  C  C128  1  0.16365000  0.07798000  0.83252000  1.0
  C  C129  1  0.14823000  0.11729000  0.80325000  1.0
  C  C130  1  0.12113000  0.15618000  0.82396000  1.0
  C  C131  1  0.10019000  0.19598000  0.79305000  1.0
  C  C132  1  0.11094000  0.15638000  0.87359000  1.0
  C  C133  1  0.12670000  0.11736000  0.90337000  1.0
  C  C134  1  0.15261000  0.07780000  0.88228000  1.0
  C  C135  1  0.11391000  0.11973000  0.95491000  1.0
  C  C136  1  0.13372000  0.09647000  0.99522000  1.0
  C  C137  1  0.11325000  0.10633000  0.08391000  1.0
  C  C138  1  0.13478000  0.06258000  0.10040000  1.0
  C  C139  1  0.14205000  0.05576000  0.15019000  1.0
  C  C140  1  0.16675000  0.00983000  0.16706000  1.0
  C  C141  1  0.12631000  0.09140000  0.18356000  1.0
  C  C142  1  0.10291000  0.13427000  0.16664000  1.0
  C  C143  1  0.08428000  0.17305000  0.20067000  1.0
  C  C144  1  0.09701000  0.14215000  0.11675000  1.0
  C  C145  1  0.18691000  0.58461000  0.18721000  1.0
  C  C146  1  0.14414000  0.60193000  0.15736000  1.0
  C  C147  1  0.10281000  0.62532000  0.17779000  1.0
  C  C148  1  0.06409000  0.64115000  0.14758000  1.0
  C  C149  1  0.02075000  0.66729000  0.16920000  1.0
  C  C150  1  0.06574000  0.63241000  0.09748000  1.0
  C  C151  1  0.10779000  0.60981000  0.07765000  1.0
  C  C152  1  0.14713000  0.59506000  0.10725000  1.0
  C  C153  1  0.09343000  0.62682000  0.98880000  1.0
  C  C154  1  0.11437000  0.60487000  0.94828000  1.0
  C  C155  1  0.10902000  0.61695000  0.89692000  1.0
  C  C156  1  0.06737000  0.64270000  0.87987000  1.0
  C  C157  1  0.06305000  0.65506000  0.83081000  1.0
  C  C158  1  0.01767000  0.68113000  0.81419000  1.0
  C  C159  1  0.10022000  0.64165000  0.79795000  1.0
  C  C160  1  0.14124000  0.61452000  0.81453000  1.0
  C  C161  1  0.17917000  0.59634000  0.77961000  1.0
  C  C162  1  0.14566000  0.60233000  0.86369000  1.0
  C  C163  1  0.18920000  0.46507000  0.31021000  1.0
  C  C164  1  0.16363000  0.42183000  0.33244000  1.0
  C  C165  1  0.14858000  0.38236000  0.30322000  1.0
  C  C166  1  0.12181000  0.34326000  0.32397000  1.0
  C  C167  1  0.10124000  0.30327000  0.29305000  1.0
  C  C168  1  0.11145000  0.34311000  0.37359000  1.0
  C  C169  1  0.12668000  0.38237000  0.40330000  1.0
  C  C170  1  0.15235000  0.42206000  0.38216000  1.0
  C  C171  1  0.11378000  0.38010000  0.45485000  1.0
  C  C172  1  0.13363000  0.40328000  0.49517000  1.0
  C  C173  1  0.11311000  0.39336000  0.58392000  1.0
  C  C174  1  0.13447000  0.43712000  0.60050000  1.0
  C  C175  1  0.14150000  0.44400000  0.65034000  1.0
  C  C176  1  0.16565000  0.49025000  0.66713000  1.0
  C  C177  1  0.12602000  0.40822000  0.68365000  1.0
  C  C178  1  0.10276000  0.36535000  0.66666667  1.0
  C  C179  1  0.08416000  0.32661000  0.70073000  1.0
  C  C180  1  0.09688000  0.35752000  0.61675000  1.0
  C  C181  1  0.31315000  0.91655000  0.18826000  1.0
  C  C182  1  0.35578000  0.89909000  0.15816000  1.0
  C  C183  1  0.39715000  0.87543000  0.17832000  1.0
  C  C184  1  0.43553000  0.85930000  0.14784000  1.0
  C  C185  1  0.47890000  0.83291000  0.16925000  1.0
  C  C186  1  0.43347000  0.86788000  0.09772000  1.0
  C  C187  1  0.39140000  0.89071000  0.07814000  1.0
  C  C188  1  0.35245000  0.90580000  0.10804000  1.0
  C  C189  1  0.40502000  0.87356000  0.98922000  1.0
  C  C190  1  0.38364000  0.89532000  0.94881000  1.0
  C  C191  1  0.38901000  0.88306000  0.89751000  1.0
  C  C192  1  0.43080000  0.85727000  0.88090000  1.0
  C  C193  1  0.43546000  0.84447000  0.83201000  1.0
  C  C194  1  0.48115000  0.81863000  0.81602000  1.0
  C  C195  1  0.39857000  0.85762000  0.79874000  1.0
  C  C196  1  0.35741000  0.88480000  0.81484000  1.0
  C  C197  1  0.31975000  0.90258000  0.77943000  1.0
  C  C198  1  0.35257000  0.89735000  0.86392000  1.0
  C  C199  1  0.30975000  0.03522000  0.31119000  1.0
  C  C200  1  0.33557000  0.07858000  0.33273000  1.0
  C  C201  1  0.35060000  0.11779000  0.30305000  1.0
  C  C202  1  0.37740000  0.15706000  0.32341000  1.0
  C  C203  1  0.39788000  0.19717000  0.29245000  1.0
  C  C204  1  0.38790000  0.15755000  0.37303000  1.0
  C  C205  1  0.37286000  0.11846000  0.40302000  1.0
  C  C206  1  0.34706000  0.07869000  0.38233000  1.0
  C  C207  1  0.38596000  0.12060000  0.45444000  1.0
  C  C208  1  0.36623000  0.09688000  0.49451000  1.0
  C  C209  1  0.38704000  0.10577000  0.58321000  1.0
  C  C210  1  0.36585000  0.06189000  0.59970000  1.0
  C  C211  1  0.35896000  0.05491000  0.64955000  1.0
  C  C212  1  0.33444000  0.00878000  0.66610000  1.0
  C  C213  1  0.37474000  0.09048000  0.68296000  1.0
  C  C214  1  0.39758000  0.13361000  0.66595000  1.0
  C  C215  1  0.41598000  0.17280000  0.69961000  1.0
  C  C216  1  0.40307000  0.14160000  0.61605000  1.0
  C  C217  1  0.68667000  0.41518000  0.31231000  1.0
  C  C218  1  0.64371000  0.39783000  0.34203000  1.0
  C  C219  1  0.60199000  0.37491000  0.32172000  1.0
  C  C220  1  0.56310000  0.35950000  0.35200000  1.0
  C  C221  1  0.51918000  0.33391000  0.33067000  1.0
  C  C222  1  0.56501000  0.36821000  0.40212000  1.0
  C  C223  1  0.60738000  0.39029000  0.42179000  1.0
  C  C224  1  0.64684000  0.40452000  0.39214000  1.0
  C  C225  1  0.59375000  0.37323000  0.51063000  1.0
  C  C226  1  0.61503000  0.39510000  0.55097000  1.0
  C  C227  1  0.60995000  0.38262000  0.60218000  1.0
  C  C228  1  0.56846000  0.35658000  0.61904000  1.0
  C  C229  1  0.56427000  0.34368000  0.66798000  1.0
  C  C230  1  0.51874000  0.31751000  0.68399000  1.0
  C  C231  1  0.60137000  0.35698000  0.70096000  1.0
  C  C232  1  0.64229000  0.38436000  0.68450000  1.0
  C  C233  1  0.68030000  0.40253000  0.71932000  1.0
  C  C234  1  0.64660000  0.39698000  0.63544000  1.0
  C  C235  1  0.68920000  0.53481000  0.18933000  1.0
  C  C236  1  0.66355000  0.57805000  0.16718000  1.0
  C  C237  1  0.64809000  0.61725000  0.19658000  1.0
  C  C238  1  0.62106000  0.65624000  0.17591000  1.0
  C  C239  1  0.60014000  0.69598000  0.20690000  1.0
  C  C240  1  0.61096000  0.65658000  0.12625000  1.0
  C  C241  1  0.62668000  0.61765000  0.09636000  1.0
  C  C242  1  0.65255000  0.57801000  0.11741000  1.0
  C  C243  1  0.61395000  0.62019000  0.04479000  1.0
  C  C244  1  0.63370000  0.59691000  0.00447000  1.0
  C  C245  1  0.61326000  0.60692000  0.91572000  1.0
  C  C246  1  0.63409000  0.56286000  0.89916000  1.0
  C  C247  1  0.64155000  0.55608000  0.84938000  1.0
  C  C248  1  0.66580000  0.50981000  0.83271000  1.0
  C  C249  1  0.62658000  0.59208000  0.81601000  1.0
  C  C250  1  0.60367000  0.63521000  0.83293000  1.0
  C  C251  1  0.58530000  0.67423000  0.79897000  1.0
  C  C252  1  0.59771000  0.64303000  0.88285000  1.0
  C  C253  1  0.81314000  0.08345000  0.31180000  1.0
  C  C254  1  0.85577000  0.10098000  0.34176000  1.0
  C  C255  1  0.89707000  0.12466000  0.32157000  1.0
  C  C256  1  0.93552000  0.14071000  0.35200000  1.0
  C  C257  1  0.97888000  0.16707000  0.33068000  1.0
  C  C258  1  0.93359000  0.13196000  0.40209000  1.0
  C  C259  1  0.89160000  0.10910000  0.42169000  1.0
  C  C260  1  0.85256000  0.09409000  0.39188000  1.0
  C  C261  1  0.90548000  0.12628000  0.51054000  1.0
  C  C262  1  0.88448000  0.10432000  0.55102000  1.0
  C  C263  1  0.88981000  0.11661000  0.60229000  1.0
  C  C264  1  0.93131000  0.14277000  0.61896000  1.0
  C  C265  1  0.93586000  0.15543000  0.66789000  1.0
  C  C266  1  0.98136000  0.18141000  0.68392000  1.0
  C  C267  1  0.89911000  0.14197000  0.70113000  1.0
  C  C268  1  0.85825000  0.11450000  0.68488000  1.0
  C  C269  1  0.82064000  0.09641000  0.72001000  1.0
  C  C270  1  0.85354000  0.10193000  0.63584000  1.0
  C  C271  1  0.80971000  0.96499000  0.18775000  1.0
  C  C272  1  0.83552000  0.92169000  0.16610000  1.0
  C  C273  1  0.85080000  0.88268000  0.19588000  1.0
  C  C274  1  0.87800000  0.84357000  0.17571000  1.0
  C  C275  1  0.89874000  0.80381000  0.20693000  1.0
  C  C276  1  0.88856000  0.84302000  0.12609000  1.0
  C  C277  1  0.87306000  0.88182000  0.09593000  1.0
  C  C278  1  0.84692000  0.92150000  0.11649000  1.0
  C  C279  1  0.88605000  0.87946000  0.04447000  1.0
  C  C280  1  0.86632000  0.90306000  0.00431000  1.0
  C  C281  1  0.88677000  0.89365000  0.91558000  1.0
  C  C282  1  0.86541000  0.93749000  0.89914000  1.0
  C  C283  1  0.85823000  0.94438000  0.84933000  1.0
  C  C284  1  0.83416000  0.99071000  0.83276000  1.0
  C  C285  1  0.87380000  0.90877000  0.81590000  1.0
  C  C286  1  0.89705000  0.86583000  0.83281000  1.0
  C  C287  1  0.91566000  0.82704000  0.79887000  1.0
  C  C288  1  0.90286000  0.85785000  0.88269000  1.0
  N  N1  1  0.88671000  0.39941000  0.97251000  1.0
  N  N2  1  0.85530000  0.43608000  0.98875000  1.0
  N  N3  1  0.85445000  0.43336000  0.03597000  1.0
  N  N4  1  0.92331000  0.65154000  0.52832000  1.0
  N  N5  1  0.92744000  0.64866000  0.48131000  1.0
  N  N6  1  0.89255000  0.61514000  0.46566000  1.0
  N  N7  1  0.61268000  0.10064000  0.97265000  1.0
  N  N8  1  0.64420000  0.06408000  0.98893000  1.0
  N  N9  1  0.64506000  0.06691000  0.03613000  1.0
  N  N10  1  0.57659000  0.84844000  0.52878000  1.0
  N  N11  1  0.57248000  0.85111000  0.48177000  1.0
  N  N12  1  0.60736000  0.88454000  0.46597000  1.0
  N  N13  1  0.38737000  0.60046000  0.52701000  1.0
  N  N14  1  0.35587000  0.56370000  0.51114000  1.0
  N  N15  1  0.35458000  0.56632000  0.46393000  1.0
  N  N16  1  0.42305000  0.34857000  0.97024000  1.0
  N  N17  1  0.42715000  0.35121000  0.01724000  1.0
  N  N18  1  0.39245000  0.38487000  0.03299000  1.0
  N  N19  1  0.11253000  0.89909000  0.52745000  1.0
  N  N20  1  0.14397000  0.93564000  0.51114000  1.0
  N  N21  1  0.14473000  0.93286000  0.46394000  1.0
  N  N22  1  0.07686000  0.15113000  0.97056000  1.0
  N  N23  1  0.07277000  0.14867000  0.01758000  1.0
  N  N24  1  0.10757000  0.11519000  0.03350000  1.0
  N  N25  1  0.11268000  0.60135000  0.02708000  1.0
  N  N26  1  0.14432000  0.56484000  0.01094000  1.0
  N  N27  1  0.14503000  0.56735000  0.96372000  1.0
  N  N28  1  0.07662000  0.34884000  0.47051000  1.0
  N  N29  1  0.07252000  0.35129000  0.51753000  1.0
  N  N30  1  0.10743000  0.38461000  0.53347000  1.0
  N  N31  1  0.38598000  0.89898000  0.02757000  1.0
  N  N32  1  0.35400000  0.93532000  0.01157000  1.0
  N  N33  1  0.35289000  0.93270000  0.96435000  1.0
  N  N34  1  0.42313000  0.15170000  0.47027000  1.0
  N  N35  1  0.42739000  0.14863000  0.51725000  1.0
  N  N36  1  0.39255000  0.11505000  0.53289000  1.0
  N  N37  1  0.61260000  0.39879000  0.47228000  1.0
  N  N38  1  0.64434000  0.43532000  0.48822000  1.0
  N  N39  1  0.64548000  0.43269000  0.53543000  1.0
  N  N40  1  0.57701000  0.65173000  0.02912000  1.0
  N  N41  1  0.57292000  0.64934000  0.98209000  1.0
  N  N42  1  0.60762000  0.61576000  0.96615000  1.0
  N  N43  1  0.88648000  0.10070000  0.47226000  1.0
  N  N44  1  0.85493000  0.06411000  0.48837000  1.0
  N  N45  1  0.85404000  0.06668000  0.53559000  1.0
  N  N46  1  0.92312000  0.84818000  0.02868000  1.0
  N  N47  1  0.92728000  0.85100000  0.98168000  1.0
  N  N48  1  0.89249000  0.88460000  0.96594000  1.0
  O  O1  1  0.77221000  0.42256000  0.83514000  1.0
  O  O2  1  0.81980000  0.42483000  0.76692000  1.0
  O  O3  1  0.97518000  0.31509000  0.78786000  1.0
  O  O4  1  0.01954000  0.32811000  0.85463000  1.0
  O  O5  1  0.78521000  0.43018000  0.20332000  1.0
  O  O6  1  0.82492000  0.39007000  0.26457000  1.0
  O  O7  1  0.98488000  0.30031000  0.22761000  1.0
  O  O8  1  0.01747000  0.31318000  0.15458000  1.0
  O  O9  1  0.79256000  0.53738000  0.73107000  1.0
  O  O10  1  0.80559000  0.49476000  0.66356000  1.0
  O  O11  1  0.89263000  0.69251000  0.75240000  1.0
  O  O12  1  0.92264000  0.73111000  0.68548000  1.0
  O  O13  1  0.83021000  0.47226000  0.36240000  1.0
  O  O14  1  0.81504000  0.50562000  0.29021000  1.0
  O  O15  1  0.91258000  0.66501000  0.25277000  1.0
  O  O16  1  0.93245000  0.71126000  0.31868000  1.0
  O  O17  1  0.72851000  0.07761000  0.83713000  1.0
  O  O18  1  0.68219000  0.07519000  0.76827000  1.0
  O  O19  1  0.52479000  0.18500000  0.78804000  1.0
  O  O20  1  0.47993000  0.16937000  0.85398000  1.0
  O  O21  1  0.71478000  0.07004000  0.20243000  1.0
  O  O22  1  0.67512000  0.10954000  0.26417000  1.0
  O  O23  1  0.51500000  0.19986000  0.22769000  1.0
  O  O24  1  0.48232000  0.18730000  0.15464000  1.0
  O  O25  1  0.70735000  0.96246000  0.73128000  1.0
  O  O26  1  0.69450000  0.00526000  0.66389000  1.0
  O  O27  1  0.60706000  0.80743000  0.75262000  1.0
  O  O28  1  0.57513000  0.76999000  0.68578000  1.0
  O  O29  1  0.66965000  0.02723000  0.36191000  1.0
  O  O30  1  0.68507000  0.99268000  0.29019000  1.0
  O  O31  1  0.58548000  0.83495000  0.25337000  1.0
  O  O32  1  0.56755000  0.78750000  0.31901000  1.0
  O  O33  1  0.27155000  0.57759000  0.66252000  1.0
  O  O34  1  0.31756000  0.57741000  0.73162000  1.0
  O  O35  1  0.47522000  0.68487000  0.71220000  1.0
  O  O36  1  0.51948000  0.67193000  0.64537000  1.0
  O  O37  1  0.28512000  0.56979000  0.29574000  1.0
  O  O38  1  0.32501000  0.60987000  0.23470000  1.0
  O  O39  1  0.48483000  0.69991000  0.27310000  1.0
  O  O40  1  0.51791000  0.68478000  0.34542000  1.0
  O  O41  1  0.29279000  0.46252000  0.76679000  1.0
  O  O42  1  0.30749000  0.50563000  0.83365000  1.0
  O  O43  1  0.39480000  0.30741000  0.74689000  1.0
  O  O44  1  0.42494000  0.26943000  0.81422000  1.0
  O  O45  1  0.33009000  0.52762000  0.13591000  1.0
  O  O46  1  0.31735000  0.49491000  0.20901000  1.0
  O  O47  1  0.41104000  0.33521000  0.24595000  1.0
  O  O48  1  0.43492000  0.28971000  0.18093000  1.0
  O  O49  1  0.22754000  0.92243000  0.66438000  1.0
  O  O50  1  0.17996000  0.92463000  0.73249000  1.0
  O  O51  1  0.02464000  0.81499000  0.71222000  1.0
  O  O52  1  0.98030000  0.82793000  0.64537000  1.0
  O  O53  1  0.21276000  0.93237000  0.29738000  1.0
  O  O54  1  0.17519000  0.89044000  0.23597000  1.0
  O  O55  1  0.01498000  0.80011000  0.27214000  1.0
  O  O56  1  0.98214000  0.81265000  0.34517000  1.0
  O  O57  1  0.20730000  0.03748000  0.76715000  1.0
  O  O58  1  0.19251000  0.99420000  0.83397000  1.0
  O  O59  1  0.10702000  0.19269000  0.74721000  1.0
  O  O60  1  0.07522000  0.23014000  0.81416000  1.0
  O  O61  1  0.16969000  0.97263000  0.13797000  1.0
  O  O62  1  0.18505000  0.00734000  0.20962000  1.0
  O  O63  1  0.08552000  0.16482000  0.24621000  1.0
  O  O64  1  0.06757000  0.21236000  0.18079000  1.0
  O  O65  1  0.22795000  0.57983000  0.16419000  1.0
  O  O66  1  0.18003000  0.57522000  0.23192000  1.0
  O  O67  1  0.02436000  0.68490000  0.21218000  1.0
  O  O68  1  0.98011000  0.67214000  0.14528000  1.0
  O  O69  1  0.21274000  0.56737000  0.79603000  1.0
  O  O70  1  0.17507000  0.60977000  0.73520000  1.0
  O  O71  1  0.01503000  0.69992000  0.77164000  1.0
  O  O72  1  0.98039000  0.68467000  0.84332000  1.0
  O  O73  1  0.20723000  0.46244000  0.26709000  1.0
  O  O74  1  0.19244000  0.50567000  0.33387000  1.0
  O  O75  1  0.10693000  0.30733000  0.24714000  1.0
  O  O76  1  0.07770000  0.26818000  0.31428000  1.0
  O  O77  1  0.16719000  0.52766000  0.63820000  1.0
  O  O78  1  0.18509000  0.49267000  0.70924000  1.0
  O  O79  1  0.08540000  0.33496000  0.74627000  1.0
  O  O80  1  0.06749000  0.28732000  0.68088000  1.0
  O  O81  1  0.27231000  0.92252000  0.16507000  1.0
  O  O82  1  0.31981000  0.92478000  0.23327000  1.0
  O  O83  1  0.47523000  0.81510000  0.21215000  1.0
  O  O84  1  0.51954000  0.82802000  0.14531000  1.0
  O  O85  1  0.28511000  0.93025000  0.79583000  1.0
  O  O86  1  0.32499000  0.89011000  0.73488000  1.0
  O  O87  1  0.48475000  0.80016000  0.77348000  1.0
  O  O88  1  0.51801000  0.81528000  0.84568000  1.0
  O  O89  1  0.29264000  0.03734000  0.26777000  1.0
  O  O90  1  0.30539000  0.99507000  0.33567000  1.0
  O  O91  1  0.39336000  0.19278000  0.24643000  1.0
  O  O92  1  0.42014000  0.23278000  0.31407000  1.0
  O  O93  1  0.33005000  0.97255000  0.63603000  1.0
  O  O94  1  0.31753000  0.00512000  0.70921000  1.0
  O  O95  1  0.41479000  0.16512000  0.74526000  1.0
  O  O96  1  0.43234000  0.21193000  0.67900000  1.0
  O  O97  1  0.72764000  0.42010000  0.33550000  1.0
  O  O98  1  0.68000000  0.42461000  0.26752000  1.0
  O  O99  1  0.52241000  0.31533000  0.28803000  1.0
  O  O100  1  0.47837000  0.33041000  0.35458000  1.0
  O  O101  1  0.71486000  0.42996000  0.70233000  1.0
  O  O102  1  0.67518000  0.39054000  0.76406000  1.0
  O  O103  1  0.51561000  0.29783000  0.72611000  1.0
  O  O104  1  0.48162000  0.31506000  0.65460000  1.0
  O  O105  1  0.70723000  0.53743000  0.23245000  1.0
  O  O106  1  0.69247000  0.49423000  0.16561000  1.0
  O  O107  1  0.60701000  0.69261000  0.25272000  1.0
  O  O108  1  0.57514000  0.73017000  0.18585000  1.0
  O  O109  1  0.66759000  0.47245000  0.86168000  1.0
  O  O110  1  0.68505000  0.50736000  0.79050000  1.0
  O  O111  1  0.58770000  0.66696000  0.75328000  1.0
  O  O112  1  0.56744000  0.71284000  0.81915000  1.0
  O  O113  1  0.77236000  0.07736000  0.33510000  1.0
  O  O114  1  0.81981000  0.07521000  0.26681000  1.0
  O  O115  1  0.97527000  0.18495000  0.28777000  1.0
  O  O116  1  0.01950000  0.17185000  0.35464000  1.0
  O  O117  1  0.78713000  0.06746000  0.70361000  1.0
  O  O118  1  0.82490000  0.10987000  0.76441000  1.0
  O  O119  1  0.98479000  0.19989000  0.72647000  1.0
  O  O120  1  0.01825000  0.18482000  0.65429000  1.0
  O  O121  1  0.79252000  0.96263000  0.23116000  1.0
  O  O122  1  0.80554000  0.00528000  0.16364000  1.0
  O  O123  1  0.89293000  0.80746000  0.25286000  1.0
  O  O124  1  0.92269000  0.76906000  0.18568000  1.0
  O  O125  1  0.83272000  0.02784000  0.86187000  1.0
  O  O126  1  0.81493000  0.99359000  0.79052000  1.0
  O  O127  1  0.91436000  0.83507000  0.75327000  1.0
  O  O128  1  0.93242000  0.78783000  0.81897000  1.0
