# generated using pymatgen
data_ZnH12C16(NO2)2
_symmetry_space_group_name_H-M   'P 1'
_cell_length_a   12.17110000
_cell_length_b   12.33459000
_cell_length_c   13.91502000
_cell_angle_alpha   89.97117000
_cell_angle_beta   89.98399000
_cell_angle_gamma   89.99865000
_symmetry_Int_Tables_number   1
_chemical_formula_structural   ZnH12C16(NO2)2
_chemical_formula_sum   'Zn4 H48 C64 N8 O16'
_cell_volume   2088.99938290
_cell_formula_units_Z   4
loop_
 _symmetry_equiv_pos_site_id
 _symmetry_equiv_pos_as_xyz
  1  'x, y, z'
loop_
 _atom_site_type_symbol
 _atom_site_label
 _atom_site_symmetry_multiplicity
 _atom_site_fract_x
 _atom_site_fract_y
 _atom_site_fract_z
 _atom_site_occupancy
  Zn  Zn0  1  0.75099000  0.80634000  0.99901000  1
  Zn  Zn1  1  0.24934000  0.30557000  0.49876000  1
  Zn  Zn2  1  0.75066000  0.69443000  0.50124000  1
  Zn  Zn3  1  0.24901000  0.19365000  0.00099000  1
  H  H4  1  0.38821000  0.42402000  0.16994000  1
  H  H5  1  0.27914000  0.32048000  0.28977000  1
  H  H6  1  0.37625000  0.52031000  0.51300000  1
  H  H7  1  0.49018000  0.63468000  0.40263000  1
  H  H8  1  0.57117000  0.66429000  0.24891000  1
  H  H9  1  0.47726000  0.53432000  0.07812000  1
  H  H10  1  0.11210000  0.42338000  0.82943000  1
  H  H11  1  0.22112000  0.32018000  0.70952000  1
  H  H12  1  0.12392000  0.52052000  0.48661000  1
  H  H13  1  0.00993000  0.63446000  0.59698000  1
  H  H14  1  0.92961000  0.66413000  0.75124000  1
  H  H15  1  0.02381000  0.53364000  0.92167000  1
  H  H16  1  0.88806000  0.92311000  0.32948000  1
  H  H17  1  0.77879000  0.82020000  0.20952000  1
  H  H18  1  0.87616000  0.02065000  0.98671000  1
  H  H19  1  0.99023000  0.13455000  0.09719000  1
  H  H20  1  0.07033000  0.16420000  0.25108000  1
  H  H21  1  0.97589000  0.03357000  0.42154000  1
  H  H22  1  0.61179000  0.92376000  0.66972000  1
  H  H23  1  0.72092000  0.82058000  0.78961000  1
  H  H24  1  0.62355000  0.02053000  0.01265000  1
  H  H25  1  0.50959000  0.13476000  0.90223000  1
  H  H26  1  0.42879000  0.16418000  0.74852000  1
  H  H27  1  0.52259000  0.03446000  0.57752000  1
  H  H28  1  0.11194000  0.07689000  0.67052000  1
  H  H29  1  0.22121000  0.17980000  0.79048000  1
  H  H30  1  0.12384000  0.97935000  0.01330000  1
  H  H31  1  0.00977000  0.86545000  0.90281000  1
  H  H32  1  0.92967000  0.83580000  0.74892000  1
  H  H33  1  0.02411000  0.96643000  0.57846000  1
  H  H34  1  0.38821000  0.07624000  0.33028000  1
  H  H35  1  0.27908000  0.17942000  0.21039000  1
  H  H36  1  0.37645000  0.97946000  0.98735000  1
  H  H37  1  0.49041000  0.86524000  0.09777000  1
  H  H38  1  0.57122000  0.83581000  0.25148000  1
  H  H39  1  0.47741000  0.96554000  0.42248000  1
  H  H40  1  0.61180000  0.57598000  0.83006000  1
  H  H41  1  0.72086000  0.67952000  0.71024000  1
  H  H42  1  0.62375000  0.47969000  0.48700000  1
  H  H43  1  0.50982000  0.36531000  0.59738000  1
  H  H44  1  0.42883000  0.33570000  0.75109000  1
  H  H45  1  0.52274000  0.46568000  0.92188000  1
  H  H46  1  0.88790000  0.57662000  0.17057000  1
  H  H47  1  0.77888000  0.67982000  0.29048000  1
  H  H48  1  0.87608000  0.47948000  0.51339000  1
  H  H49  1  0.99007000  0.36554000  0.40302000  1
  H  H50  1  0.07040000  0.33587000  0.24876000  1
  H  H51  1  0.97619000  0.46636000  0.07833000  1
  C  C52  1  0.38819000  0.44941000  0.24496000  1
  C  C53  1  0.32787000  0.39023000  0.31116000  1
  C  C54  1  0.38141000  0.50220000  0.43660000  1
  C  C55  1  0.44426000  0.56557000  0.37503000  1
  C  C56  1  0.45027000  0.53897000  0.27669000  1
  C  C57  1  0.52007000  0.60376000  0.21349000  1
  C  C58  1  0.52585000  0.59416000  0.11696000  1
  C  C59  1  0.59844000  0.66314000  0.05659000  1
  C  C60  1  0.11208000  0.44893000  0.75445000  1
  C  C61  1  0.17241000  0.38994000  0.68815000  1
  C  C62  1  0.11879000  0.50222000  0.56299000  1
  C  C63  1  0.05588000  0.56539000  0.62462000  1
  C  C64  1  0.05004000  0.53861000  0.72295000  1
  C  C65  1  0.98069000  0.60341000  0.78643000  1
  C  C66  1  0.97533000  0.59379000  0.88299000  1
  C  C67  1  0.90273000  0.66289000  0.94310000  1
  C  C68  1  0.88796000  0.94886000  0.25454000  1
  C  C69  1  0.82760000  0.88995000  0.18824000  1
  C  C70  1  0.88129000  0.00233000  0.06308000  1
  C  C71  1  0.94419000  0.06544000  0.12472000  1
  C  C72  1  0.95005000  0.03856000  0.22304000  1
  C  C73  1  0.01939000  0.10343000  0.28647000  1
  C  C74  1  0.02426000  0.09389000  0.38304000  1
  C  C75  1  0.09569000  0.16342000  0.44372000  1
  C  C76  1  0.61175000  0.94931000  0.74470000  1
  C  C77  1  0.67211000  0.89028000  0.81098000  1
  C  C78  1  0.61844000  0.00235000  0.93626000  1
  C  C79  1  0.55556000  0.06562000  0.87466000  1
  C  C80  1  0.54966000  0.03893000  0.77630000  1
  C  C81  1  0.47989000  0.10369000  0.71301000  1
  C  C82  1  0.47407000  0.09433000  0.61647000  1
  C  C83  1  0.40113000  0.16347000  0.55653000  1
  C  C84  1  0.11204000  0.05114000  0.74546000  1
  C  C85  1  0.17241000  0.11005000  0.81176000  1
  C  C86  1  0.11871000  0.99767000  0.93692000  1
  C  C87  1  0.05581000  0.93456000  0.87528000  1
  C  C88  1  0.04995000  0.96144000  0.77696000  1
  C  C89  1  0.98061000  0.89657000  0.71353000  1
  C  C90  1  0.97574000  0.90611000  0.61696000  1
  C  C91  1  0.90431000  0.83658000  0.55628000  1
  C  C92  1  0.38825000  0.05069000  0.25530000  1
  C  C93  1  0.32789000  0.10972000  0.18902000  1
  C  C94  1  0.38156000  0.99764000  0.06374000  1
  C  C95  1  0.44444000  0.93438000  0.12534000  1
  C  C96  1  0.45035000  0.96106000  0.22370000  1
  C  C97  1  0.52011000  0.89631000  0.28700000  1
  C  C98  1  0.52593000  0.90567000  0.38353000  1
  C  C99  1  0.59887000  0.83653000  0.44347000  1
  C  C100  1  0.61181000  0.55059000  0.75504000  1
  C  C101  1  0.67213000  0.60977000  0.68884000  1
  C  C102  1  0.61859000  0.49780000  0.56341000  1
  C  C103  1  0.55574000  0.43443000  0.62497000  1
  C  C104  1  0.54974000  0.46103000  0.72331000  1
  C  C105  1  0.47993000  0.39623000  0.78651000  1
  C  C106  1  0.47415000  0.40583000  0.88304000  1
  C  C107  1  0.40156000  0.33686000  0.94341000  1
  C  C108  1  0.88792000  0.55107000  0.24555000  1
  C  C109  1  0.82759000  0.61006000  0.31185000  1
  C  C110  1  0.88121000  0.49778000  0.43701000  1
  C  C111  1  0.94412000  0.43461000  0.37538000  1
  C  C112  1  0.94996000  0.46139000  0.27705000  1
  C  C113  1  0.01931000  0.39659000  0.21357000  1
  C  C114  1  0.02468000  0.40621000  0.11701000  1
  C  C115  1  0.09727000  0.33711000  0.05690000  1
  N  N116  1  0.32514000  0.41436000  0.40610000  1
  N  N117  1  0.17519000  0.41437000  0.59324000  1
  N  N118  1  0.82487000  0.91446000  0.09335000  1
  N  N119  1  0.67488000  0.91455000  0.90588000  1
  N  N120  1  0.17513000  0.08553000  0.90665000  1
  N  N121  1  0.32512000  0.08545000  0.09413000  1
  N  N122  1  0.67486000  0.58564000  0.59390000  1
  N  N123  1  0.82482000  0.58563000  0.40676000  1
  O  O124  1  0.60554000  0.64522000  0.96798000  1
  O  O125  1  0.65187000  0.74135000  0.09917000  1
  O  O126  1  0.89433000  0.64467000  0.03149000  1
  O  O127  1  0.85032000  0.74186000  0.90030000  1
  O  O128  1  0.10004000  0.14787000  0.53275000  1
  O  O129  1  0.15063000  0.24038000  0.40045000  1
  O  O130  1  0.39486000  0.14733000  0.46757000  1
  O  O131  1  0.34640000  0.24044000  0.59968000  1
  O  O132  1  0.89996000  0.85213000  0.46725000  1
  O  O133  1  0.84937000  0.75962000  0.59955000  1
  O  O134  1  0.60514000  0.85267000  0.53243000  1
  O  O135  1  0.65360000  0.75956000  0.40032000  1
  O  O136  1  0.39446000  0.35478000  0.03202000  1
  O  O137  1  0.34813000  0.25864000  0.90083000  1
  O  O138  1  0.10567000  0.35533000  0.96851000  1
  O  O139  1  0.14968000  0.25814000  0.09970000  1
