# generated using pymatgen
data_Mg2Cd3H24(C2O)24
_symmetry_space_group_name_H-M   'P 1'
_cell_length_a   16.63895000
_cell_length_b   16.98755000
_cell_length_c   16.98763000
_cell_angle_alpha   116.34639000
_cell_angle_beta   103.46840000
_cell_angle_gamma   103.46800000
_symmetry_Int_Tables_number   1
_chemical_formula_structural   Mg2Cd3H24(C2O)24
_chemical_formula_sum   'Mg4 Cd6 H48 C96 O48'
_cell_volume   3860.48948533
_cell_formula_units_Z   2
loop_
 _symmetry_equiv_pos_site_id
 _symmetry_equiv_pos_as_xyz
  1  'x, y, z'
loop_
 _atom_site_type_symbol
 _atom_site_label
 _atom_site_symmetry_multiplicity
 _atom_site_fract_x
 _atom_site_fract_y
 _atom_site_fract_z
 _atom_site_occupancy
  Mg  Mg0  1  0.26875000  0.59788000  0.82129000  1
  Mg  Mg1  1  0.23126000  0.17871000  0.40212000  1
  Mg  Mg2  1  0.73126000  0.40211000  0.17870000  1
  Mg  Mg3  1  0.76874000  0.82129000  0.59788000  1
  Cd  Cd4  1  0.25000000  0.36392000  0.63608000  1
  Cd  Cd5  1  0.75000000  0.63608000  0.36392000  1
  Cd  Cd6  1  0.35814000  0.78646000  0.05952000  1
  Cd  Cd7  1  0.85814000  0.05952000  0.78646000  1
  Cd  Cd8  1  0.14186000  0.94048000  0.21355000  1
  Cd  Cd9  1  0.64186000  0.21355000  0.94048000  1
  H  H10  1  0.45090000  0.32418000  0.42707000  1
  H  H11  1  0.46493000  0.34406000  0.85676000  1
  H  H12  1  0.43186000  0.58782000  0.60724000  1
  H  H13  1  0.42571000  0.60758000  0.98732000  1
  H  H14  1  0.04910000  0.57293000  0.67581000  1
  H  H15  1  0.03508000  0.14325000  0.65594000  1
  H  H16  1  0.06815000  0.39276000  0.41217000  1
  H  H17  1  0.07429000  0.01268000  0.39242000  1
  H  H18  1  0.54910000  0.67581000  0.57293000  1
  H  H19  1  0.53508000  0.65594000  0.14325000  1
  H  H20  1  0.56815000  0.41217000  0.39276000  1
  H  H21  1  0.57429000  0.39242000  0.01268000  1
  H  H22  1  0.95091000  0.42706000  0.32418000  1
  H  H23  1  0.96493000  0.85675000  0.34406000  1
  H  H24  1  0.93185000  0.60723000  0.58782000  1
  H  H25  1  0.92572000  0.98732000  0.60758000  1
  H  H26  1  0.51323000  0.01844000  0.39940000  1
  H  H27  1  0.62432000  0.07935000  0.56232000  1
  H  H28  1  0.60331000  0.78982000  0.27986000  1
  H  H29  1  0.51280000  0.66760000  0.79128000  1
  H  H30  1  0.53414000  0.95572000  0.95979000  1
  H  H31  1  0.64733000  0.01133000  0.90233000  1
  H  H32  1  0.71406000  0.85172000  0.43983000  1
  H  H33  1  0.62762000  0.72400000  0.73500000  1
  H  H34  1  0.01323000  0.39940000  0.01844000  1
  H  H35  1  0.12432000  0.56232000  0.07934000  1
  H  H36  1  0.10331000  0.27985000  0.78983000  1
  H  H37  1  0.01279000  0.79127000  0.66760000  1
  H  H38  1  0.03414000  0.95978000  0.95572000  1
  H  H39  1  0.14733000  0.90233000  0.01133000  1
  H  H40  1  0.21406000  0.43983000  0.85172000  1
  H  H41  1  0.12762000  0.73500000  0.72401000  1
  H  H42  1  0.98678000  0.60059000  0.98156000  1
  H  H43  1  0.87568000  0.43768000  0.92066000  1
  H  H44  1  0.89670000  0.72014000  0.21018000  1
  H  H45  1  0.98720000  0.20872000  0.33239000  1
  H  H46  1  0.96587000  0.04021000  0.04429000  1
  H  H47  1  0.85267000  0.09765000  0.98866000  1
  H  H48  1  0.78595000  0.56017000  0.14828000  1
  H  H49  1  0.87237000  0.26498000  0.27597000  1
  H  H50  1  0.48678000  0.98156000  0.60060000  1
  H  H51  1  0.37569000  0.92065000  0.43768000  1
  H  H52  1  0.39670000  0.21018000  0.72014000  1
  H  H53  1  0.48720000  0.33240000  0.20873000  1
  H  H54  1  0.46586000  0.04427000  0.04022000  1
  H  H55  1  0.35267000  0.98866000  0.09766000  1
  H  H56  1  0.28595000  0.14828000  0.56017000  1
  H  H57  1  0.37237000  0.27598000  0.26499000  1
  C  C58  1  0.43481000  0.45109000  0.51905000  1
  C  C59  1  0.47292000  0.40082000  0.45849000  1
  C  C60  1  0.48012000  0.41223000  0.91932000  1
  C  C61  1  0.46222000  0.55024000  0.56043000  1
  C  C62  1  0.45855000  0.56100000  0.99308000  1
  C  C63  1  0.43824000  0.47307000  0.91186000  1
  C  C64  1  0.36673000  0.40108000  0.54257000  1
  C  C65  1  0.37175000  0.44219000  0.81770000  1
  C  C66  1  0.06519000  0.48095000  0.54890000  1
  C  C67  1  0.02709000  0.54150000  0.59917000  1
  C  C68  1  0.01989000  0.08068000  0.58777000  1
  C  C69  1  0.03779000  0.43957000  0.44975000  1
  C  C70  1  0.04146000  0.00692000  0.43900000  1
  C  C71  1  0.06177000  0.08814000  0.52693000  1
  C  C72  1  0.13327000  0.45742000  0.59892000  1
  C  C73  1  0.12826000  0.18230000  0.55781000  1
  C  C74  1  0.56519000  0.54890000  0.48095000  1
  C  C75  1  0.52709000  0.59917000  0.54151000  1
  C  C76  1  0.51989000  0.58777000  0.08068000  1
  C  C77  1  0.53779000  0.44975000  0.43957000  1
  C  C78  1  0.54146000  0.43900000  0.00693000  1
  C  C79  1  0.56177000  0.52693000  0.08814000  1
  C  C80  1  0.63327000  0.59891000  0.45742000  1
  C  C81  1  0.62826000  0.55781000  0.18230000  1
  C  C82  1  0.93481000  0.51904000  0.45109000  1
  C  C83  1  0.97292000  0.45849000  0.40082000  1
  C  C84  1  0.98012000  0.91932000  0.41223000  1
  C  C85  1  0.96222000  0.56042000  0.55024000  1
  C  C86  1  0.95855000  0.99307000  0.56100000  1
  C  C87  1  0.93824000  0.91186000  0.47307000  1
  C  C88  1  0.86673000  0.54256000  0.40107000  1
  C  C89  1  0.87175000  0.81770000  0.44219000  1
  C  C90  1  0.55728000  0.98248000  0.40938000  1
  C  C91  1  0.61863000  0.01632000  0.49966000  1
  C  C92  1  0.55111000  0.90028000  0.33007000  1
  C  C93  1  0.60769000  0.85312000  0.34127000  1
  C  C94  1  0.73776000  0.00330000  0.60810000  1
  C  C95  1  0.54250000  0.74236000  0.81467000  1
  C  C96  1  0.51525000  0.80802000  0.87719000  1
  C  C97  1  0.70644000  0.90185000  0.77397000  1
  C  C98  1  0.67415000  0.96810000  0.51110000  1
  C  C99  1  0.55419000  0.90532000  0.90997000  1
  C  C100  1  0.44448000  0.77258000  0.90734000  1
  C  C101  1  0.48396000  0.86199000  0.23406000  1
  C  C102  1  0.61691000  0.93634000  0.87769000  1
  C  C103  1  0.66917000  0.88721000  0.43144000  1
  C  C104  1  0.60596000  0.77357000  0.78339000  1
  C  C105  1  0.64189000  0.87022000  0.81270000  1
  C  C106  1  0.05728000  0.40937000  0.98249000  1
  C  C107  1  0.11863000  0.49966000  0.01632000  1
  C  C108  1  0.05111000  0.33007000  0.90028000  1
  C  C109  1  0.10769000  0.34127000  0.85313000  1
  C  C110  1  0.23775000  0.60810000  0.00330000  1
  C  C111  1  0.04250000  0.81466000  0.74236000  1
  C  C112  1  0.01525000  0.87718000  0.80803000  1
  C  C113  1  0.20645000  0.77398000  0.90185000  1
  C  C114  1  0.17415000  0.51109000  0.96810000  1
  C  C115  1  0.05419000  0.90996000  0.90532000  1
  C  C116  1  0.94449000  0.90734000  0.77258000  1
  C  C117  1  0.98397000  0.23406000  0.86200000  1
  C  C118  1  0.11691000  0.87768000  0.93634000  1
  C  C119  1  0.16917000  0.43144000  0.88721000  1
  C  C120  1  0.10596000  0.78338000  0.77357000  1
  C  C121  1  0.14189000  0.81270000  0.87022000  1
  C  C122  1  0.94273000  0.59062000  0.01752000  1
  C  C123  1  0.88138000  0.50034000  0.98368000  1
  C  C124  1  0.94890000  0.66993000  0.09972000  1
  C  C125  1  0.89232000  0.65873000  0.14688000  1
  C  C126  1  0.76225000  0.39190000  0.99670000  1
  C  C127  1  0.95750000  0.18533000  0.25763000  1
  C  C128  1  0.98475000  0.12281000  0.19197000  1
  C  C129  1  0.79356000  0.22603000  0.09814000  1
  C  C130  1  0.82586000  0.48890000  0.03190000  1
  C  C131  1  0.94581000  0.09003000  0.09468000  1
  C  C132  1  0.05552000  0.09266000  0.22742000  1
  C  C133  1  0.01604000  0.76594000  0.13801000  1
  C  C134  1  0.88309000  0.12230000  0.06365000  1
  C  C135  1  0.83084000  0.56856000  0.11279000  1
  C  C136  1  0.89404000  0.21660000  0.22642000  1
  C  C137  1  0.85811000  0.18730000  0.12977000  1
  C  C138  1  0.44273000  0.01751000  0.59062000  1
  C  C139  1  0.38138000  0.98367000  0.50034000  1
  C  C140  1  0.44889000  0.09972000  0.66993000  1
  C  C141  1  0.39232000  0.14687000  0.65873000  1
  C  C142  1  0.26225000  0.99670000  0.39190000  1
  C  C143  1  0.45750000  0.25763000  0.18533000  1
  C  C144  1  0.48475000  0.19197000  0.12281000  1
  C  C145  1  0.29355000  0.09814000  0.22602000  1
  C  C146  1  0.32586000  0.03190000  0.48891000  1
  C  C147  1  0.44581000  0.09467000  0.09003000  1
  C  C148  1  0.55551000  0.22742000  0.09266000  1
  C  C149  1  0.51604000  0.13799000  0.76594000  1
  C  C150  1  0.38309000  0.06365000  0.12231000  1
  C  C151  1  0.33084000  0.11279000  0.56856000  1
  C  C152  1  0.39404000  0.22642000  0.21661000  1
  C  C153  1  0.35811000  0.12977000  0.18730000  1
  O  O154  1  0.35382000  0.45441000  0.61566000  1
  O  O155  1  0.35832000  0.36234000  0.74628000  1
  O  O156  1  0.32754000  0.49231000  0.80766000  1
  O  O157  1  0.32576000  0.31049000  0.49247000  1
  O  O158  1  0.14619000  0.38433000  0.54559000  1
  O  O159  1  0.14169000  0.25373000  0.63766000  1
  O  O160  1  0.17247000  0.19234000  0.50769000  1
  O  O161  1  0.17425000  0.50753000  0.68951000  1
  O  O162  1  0.64618000  0.54558000  0.38433000  1
  O  O163  1  0.64167000  0.63766000  0.25373000  1
  O  O164  1  0.67248000  0.50770000  0.19234000  1
  O  O165  1  0.67425000  0.68950000  0.50753000  1
  O  O166  1  0.85381000  0.61565000  0.45440000  1
  O  O167  1  0.85832000  0.74627000  0.36234000  1
  O  O168  1  0.82754000  0.80766000  0.49231000  1
  O  O169  1  0.82575000  0.49245000  0.31048000  1
  O  O170  1  0.44919000  0.82851000  0.99036000  1
  O  O171  1  0.43077000  0.90280000  0.22210000  1
  O  O172  1  0.77779000  0.94915000  0.61904000  1
  O  O173  1  0.70672000  0.84103000  0.69628000  1
  O  O174  1  0.75357000  0.08309000  0.67808000  1
  O  O175  1  0.75757000  0.99066000  0.82555000  1
  O  O176  1  0.38566000  0.68862000  0.84829000  1
  O  O177  1  0.47900000  0.78646000  0.16239000  1
  O  O178  1  0.94921000  0.99037000  0.82852000  1
  O  O179  1  0.93076000  0.22210000  0.90279000  1
  O  O180  1  0.27779000  0.61904000  0.94915000  1
  O  O181  1  0.20673000  0.69628000  0.84104000  1
  O  O182  1  0.25356000  0.67808000  0.08309000  1
  O  O183  1  0.25758000  0.82557000  0.99066000  1
  O  O184  1  0.88566000  0.84830000  0.68863000  1
  O  O185  1  0.97902000  0.16238000  0.78648000  1
  O  O186  1  0.05082000  0.00964000  0.17148000  1
  O  O187  1  0.06925000  0.77790000  0.09721000  1
  O  O188  1  0.72221000  0.38096000  0.05084000  1
  O  O189  1  0.79330000  0.30373000  0.15895000  1
  O  O190  1  0.74645000  0.32192000  0.91691000  1
  O  O191  1  0.74243000  0.17444000  0.00933000  1
  O  O192  1  0.11434000  0.15170000  0.31138000  1
  O  O193  1  0.02100000  0.83761000  0.21354000  1
  O  O194  1  0.55080000  0.17147000  0.00963000  1
  O  O195  1  0.56925000  0.09720000  0.77790000  1
  O  O196  1  0.22221000  0.05085000  0.38096000  1
  O  O197  1  0.29328000  0.15895000  0.30372000  1
  O  O198  1  0.24645000  0.91691000  0.32192000  1
  O  O199  1  0.24242000  0.00933000  0.17443000  1
  O  O200  1  0.61434000  0.31137000  0.15168000  1
  O  O201  1  0.52098000  0.21351000  0.83762000  1
