# generated using pymatgen
data_H13C14(NO)2
_symmetry_space_group_name_H-M   'P 1'
_cell_length_a   9.98206667
_cell_length_b   15.09650000
_cell_length_c   15.09650000
_cell_angle_alpha   90.00000000
_cell_angle_beta   90.00000000
_cell_angle_gamma   90.00000000
_symmetry_Int_Tables_number   1
_chemical_formula_structural   H13C14(NO)2
_chemical_formula_sum   'H26 C28 N4 O4'
_cell_volume   2274.95603850
_cell_formula_units_Z   2
loop_
 _symmetry_equiv_pos_site_id
 _symmetry_equiv_pos_as_xyz
  1  'x, y, z'
loop_
 _atom_site_type_symbol
 _atom_site_label
 _atom_site_symmetry_multiplicity
 _atom_site_fract_x
 _atom_site_fract_y
 _atom_site_fract_z
 _atom_site_occupancy
  C  1  1  0.98039200  0.03297600  0.96915900  1
  C  2  1  0.91439400  0.11139200  0.99677400  1
  C  3  1  0.87256800  0.17663900  0.93570800  1
  C  4  1  0.89503900  0.16124500  0.84474000  1
  C  5  1  0.95882800  0.08355600  0.81390400  1
  C  6  1  0.00181300  0.02041100  0.87713800  1
  C  10  1  0.02496000  0.96915200  0.03298300  1
  C  11  1  0.09094300  0.99677400  0.11140400  1
  C  12  1  0.13279300  0.93570800  0.17664400  1
  C  13  1  0.11034200  0.84474000  0.16124900  1
  C  14  1  0.04654700  0.81390400  0.08356100  1
  C  15  1  0.00353000  0.87713100  0.02042700  1
  C  19  1  0.02971800  0.71622300  0.07371400  1
  C  22  1  0.19851900  0.96647000  0.25965100  1
  C  25  1  0.97567900  0.07371300  0.71622600  1
  C  28  1  0.80686000  0.25965100  0.96647000  1
  C  31  1  0.95390500  0.98024800  0.53123600  1
  C  32  1  0.96953100  0.98755400  0.43881000  1
  C  33  1  0.09510400  0.01120800  0.40276300  1
  C  34  1  0.20513200  0.02415900  0.46019300  1
  C  35  1  0.18985400  0.01554000  0.55268500  1
  C  36  1  0.06332300  0.99441000  0.58905700  1
  C  47  1  0.80025800  0.46018700  0.02416500  1
  C  48  1  0.81553600  0.55268000  0.01554500  1
  C  49  1  0.94206800  0.58904500  0.99441900  1
  C  50  1  0.05148600  0.53122800  0.98026800  1
  C  51  1  0.03586800  0.43879900  0.98758700  1
  C  52  1  0.91028600  0.40275700  0.01122300  1
  H  7  1  0.89554100  0.12138800  0.06269200  1
  H  8  1  0.05140700  0.96505200  0.85610600  1
  H  9  1  0.86448500  0.20779800  0.79970900  1
  H  16  1  0.10981200  0.06269100  0.12139200  1
  H  17  1  0.14091600  0.79970900  0.20779700  1
  H  18  1  0.95396900  0.85609300  0.96505200  1
  H  20  1  0.12994800  0.68681600  0.07619500  1
  H  21  1  0.97436600  0.69326000  0.13200300  1
  H  23  1  0.28985800  0.00288300  0.24270000  1
  H  24  1  0.22957700  0.90974800  0.29987100  1
  H  26  1  0.03105000  0.13199700  0.69327400  1
  H  27  1  0.87545400  0.07620400  0.68680800  1
  H  29  1  0.71550700  0.24271100  0.00286900  1
  H  30  1  0.77581600  0.29987700  0.90974100  1
  H  37  1  0.29634600  0.04151900  0.43470400  1
  H  39  1  0.86147900  0.96583700  0.55666700  1
  H  41  1  0.86401300  0.91607400  0.36366700  1
  H  42  1  0.29954000  0.09285000  0.61912500  1
  H  44  1  0.12463300  0.08984900  0.29759100  1
  H  46  1  0.99675100  0.93721100  0.70055400  1
  H  53  1  0.14392100  0.55665800  0.96585400  1
  H  55  1  0.70903500  0.43469800  0.04151400  1
  H  57  1  0.70585000  0.61913200  0.09284300  1
  H  58  1  0.14155300  0.36386100  0.91600100  1
  H  60  1  0.00862900  0.70054000  0.93721800  1
  H  62  1  0.88072900  0.29757900  0.08985100  1
  N  43  1  0.10499300  0.02424400  0.31018500  1
  N  45  1  0.04690300  0.99382700  0.68253600  1
  N  59  1  0.95848200  0.68253000  0.99383400  1
  N  61  1  0.90037800  0.31017700  0.02425000  1
  O  38  1  0.86031600  0.97724000  0.38593200  1
  O  40  1  0.29747300  0.02900000  0.60626600  1
  O  54  1  0.70791200  0.60626000  0.02899500  1
  O  56  1  0.14504500  0.38589800  0.97726000  1
