# generated using pymatgen
data_NaCu2H27C38N6O5
_symmetry_space_group_name_H-M   'P 1'
_cell_length_a   8.68735000
_cell_length_b   19.38476000
_cell_length_c   21.39329000
_cell_angle_alpha   90.08083000
_cell_angle_beta   90.03661000
_cell_angle_gamma   89.95495000
_symmetry_Int_Tables_number   1
_chemical_formula_structural   NaCu2H27C38N6O5
_chemical_formula_sum   'Na4 Cu8 H108 C152 N24 O20'
_cell_volume   3602.67155812
_cell_formula_units_Z   4
loop_
 _symmetry_equiv_pos_site_id
 _symmetry_equiv_pos_as_xyz
  1  'x, y, z'
loop_
 _atom_site_type_symbol
 _atom_site_label
 _atom_site_symmetry_multiplicity
 _atom_site_fract_x
 _atom_site_fract_y
 _atom_site_fract_z
 _atom_site_occupancy
  Na  Na0  1  0.12903000  0.00006000  0.66350000  1
  Na  Na1  1  0.37109000  0.99658000  0.16490000  1
  Na  Na2  1  0.87850000  0.50683000  0.83815000  1
  Na  Na3  1  0.64395000  0.50334000  0.33044000  1
  Cu  Cu4  1  0.01118000  0.08150000  0.41168000  1
  Cu  Cu5  1  0.69910000  0.17739000  0.36431000  1
  Cu  Cu6  1  0.48820000  0.91828000  0.91154000  1
  Cu  Cu7  1  0.80131000  0.82424000  0.86478000  1
  Cu  Cu8  1  0.98927000  0.58131000  0.08758000  1
  Cu  Cu9  1  0.30210000  0.67614000  0.13522000  1
  Cu  Cu10  1  0.51262000  0.41831000  0.58834000  1
  Cu  Cu11  1  0.20030000  0.32340000  0.63580000  1
  H  H12  1  0.84164000  0.16821000  0.46473000  1
  H  H13  1  0.85175000  0.95052000  0.56030000  1
  H  H14  1  0.65266000  0.97330000  0.63999000  1
  H  H15  1  0.60102000  0.09357000  0.67572000  1
  H  H16  1  0.74659000  0.19060000  0.62801000  1
  H  H17  1  0.94709000  0.16799000  0.54861000  1
  H  H18  1  0.35278000  0.89335000  0.48516000  1
  H  H19  1  0.45669000  0.86592000  0.37775000  1
  H  H20  1  0.36042000  0.93218000  0.28511000  1
  H  H21  1  0.95199000  0.08309000  0.20089000  1
  H  H22  1  0.84370000  0.17717000  0.13593000  1
  H  H23  1  0.83819000  0.29823000  0.17694000  1
  H  H24  1  0.93104000  0.32140000  0.28494000  1
  H  H25  1  0.03443000  0.22650000  0.35020000  1
  H  H26  1  0.36247000  0.14490000  0.17860000  1
  H  H27  1  0.30068000  0.27079000  0.16888000  1
  H  H28  1  0.42710000  0.35622000  0.24025000  1
  H  H29  1  0.78427000  0.98997000  0.24837000  1
  H  H30  1  0.89583000  0.87797000  0.28096000  1
  H  H31  1  0.88599000  0.84157000  0.39230000  1
  H  H32  1  0.76195000  0.91935000  0.47074000  1
  H  H33  1  0.65779000  0.03240000  0.43891000  1
  H  H34  1  0.63653000  0.24213000  0.50286000  1
  H  H35  1  0.75943000  0.29266000  0.59795000  1
  H  H36  1  0.94721000  0.38801000  0.58842000  1
  H  H37  1  0.02115000  0.43049000  0.48181000  1
  H  H38  1  0.89673000  0.38211000  0.38818000  1
  H  H39  1  0.66020000  0.83495000  0.96545000  1
  H  H40  1  0.64925000  0.04901000  0.06030000  1
  H  H41  1  0.84776000  0.02644000  0.14021000  1
  H  H42  1  0.89870000  0.90629000  0.17618000  1
  H  H43  1  0.75303000  0.80917000  0.12840000  1
  H  H44  1  0.55323000  0.83147000  0.04866000  1
  H  H45  1  0.14779000  0.10721000  0.98584000  1
  H  H46  1  0.04320000  0.13409000  0.87843000  1
  H  H47  1  0.13883000  0.06770000  0.78561000  1
  H  H48  1  0.54755000  0.91691000  0.70106000  1
  H  H49  1  0.65600000  0.82280000  0.63602000  1
  H  H50  1  0.66241000  0.70179000  0.67681000  1
  H  H51  1  0.56943000  0.67865000  0.78465000  1
  H  H52  1  0.46547000  0.77352000  0.85003000  1
  H  H53  1  0.13873000  0.85537000  0.67889000  1
  H  H54  1  0.19815000  0.72939000  0.66890000  1
  H  H55  1  0.07214000  0.64459000  0.74052000  1
  H  H56  1  0.71674000  0.01073000  0.74831000  1
  H  H57  1  0.60377000  0.12243000  0.78107000  1
  H  H58  1  0.61297000  0.15891000  0.89244000  1
  H  H59  1  0.73666000  0.08129000  0.97108000  1
  H  H60  1  0.84232000  0.96838000  0.93893000  1
  H  H61  1  0.86343000  0.75920000  0.00377000  1
  H  H62  1  0.74112000  0.70737000  0.09831000  1
  H  H63  1  0.55408000  0.61177000  0.08759000  1
  H  H64  1  0.48139000  0.56990000  0.98058000  1
  H  H65  1  0.60513000  0.61958000  0.88752000  1
  H  H66  1  0.15744000  0.66805000  0.03552000  1
  H  H67  1  0.14940000  0.45058000  0.93953000  1
  H  H68  1  0.34846000  0.47329000  0.85987000  1
  H  H69  1  0.39905000  0.59346000  0.82406000  1
  H  H70  1  0.25297000  0.69059000  0.87183000  1
  H  H71  1  0.05239000  0.66804000  0.95109000  1
  H  H72  1  0.64655000  0.39314000  0.01449000  1
  H  H73  1  0.54456000  0.36663000  0.12239000  1
  H  H74  1  0.64271000  0.43266000  0.21463000  1
  H  H75  1  0.05196000  0.58343000  0.29767000  1
  H  H76  1  0.15683000  0.67740000  0.36348000  1
  H  H77  1  0.16097000  0.79877000  0.32339000  1
  H  H78  1  0.06906000  0.82223000  0.21537000  1
  H  H79  1  0.96706000  0.72740000  0.14931000  1
  H  H80  1  0.63512000  0.64539000  0.32209000  1
  H  H81  1  0.69781000  0.77091000  0.33128000  1
  H  H82  1  0.57308000  0.85602000  0.25937000  1
  H  H83  1  0.21624000  0.48973000  0.25153000  1
  H  H84  1  0.10416000  0.37801000  0.21893000  1
  H  H85  1  0.11348000  0.34133000  0.10755000  1
  H  H86  1  0.23740000  0.41874000  0.02893000  1
  H  H87  1  0.34188000  0.53184000  0.06087000  1
  H  H88  1  0.36326000  0.74131000  0.99654000  1
  H  H89  1  0.24106000  0.79266000  0.90177000  1
  H  H90  1  0.05376000  0.88827000  0.91193000  1
  H  H91  1  0.98000000  0.93047000  0.01876000  1
  H  H92  1  0.10367000  0.88127000  0.11212000  1
  H  H93  1  0.33801000  0.33619000  0.53496000  1
  H  H94  1  0.35191000  0.54908000  0.43920000  1
  H  H95  1  0.15223000  0.52643000  0.35970000  1
  H  H96  1  0.10072000  0.40616000  0.32394000  1
  H  H97  1  0.24641000  0.30906000  0.37167000  1
  H  H98  1  0.44665000  0.33156000  0.45130000  1
  H  H99  1  0.85220000  0.60700000  0.51416000  1
  H  H100  1  0.95652000  0.63416000  0.62156000  1
  H  H101  1  0.86107000  0.56794000  0.71430000  1
  H  H102  1  0.45414000  0.41716000  0.79918000  1
  H  H103  1  0.34460000  0.32329000  0.86396000  1
  H  H104  1  0.33775000  0.20227000  0.82286000  1
  H  H105  1  0.43084000  0.17897000  0.71498000  1
  H  H106  1  0.53528000  0.27364000  0.64987000  1
  H  H107  1  0.86131000  0.35530000  0.82074000  1
  H  H108  1  0.80205000  0.22908000  0.83078000  1
  H  H109  1  0.92766000  0.14399000  0.75882000  1
  H  H110  1  0.28318000  0.51035000  0.75176000  1
  H  H111  1  0.39568000  0.62202000  0.71915000  1
  H  H112  1  0.38643000  0.65828000  0.60781000  1
  H  H113  1  0.26278000  0.58049000  0.52909000  1
  H  H114  1  0.15736000  0.46773000  0.56117000  1
  H  H115  1  0.13692000  0.25866000  0.49603000  1
  H  H116  1  0.25977000  0.20728000  0.40136000  1
  H  H117  1  0.44671000  0.11163000  0.41153000  1
  H  H118  1  0.52044000  0.06979000  0.51839000  1
  H  H119  1  0.39615000  0.11907000  0.61170000  1
  C  C120  1  0.91206000  0.05753000  0.54782000  1
  C  C121  1  0.82757000  0.00315000  0.57483000  1
  C  C122  1  0.71616000  0.01624000  0.62008000  1
  C  C123  1  0.68677000  0.08371000  0.63981000  1
  C  C124  1  0.76835000  0.13798000  0.61279000  1
  C  C125  1  0.87951000  0.12539000  0.56706000  1
  C  C126  1  0.12587000  0.99314000  0.50942000  1
  C  C127  1  0.20605000  0.97344000  0.44989000  1
  C  C128  1  0.31504000  0.92109000  0.44376000  1
  C  C129  1  0.37142000  0.90649000  0.38395000  1
  C  C130  1  0.31933000  0.94360000  0.33199000  1
  C  C131  1  0.21284000  0.99660000  0.34182000  1
  C  C132  1  0.14939000  0.04442000  0.29277000  1
  C  C133  1  0.00407000  0.14822000  0.27946000  1
  C  C134  1  0.94764000  0.13537000  0.21874000  1
  C  C135  1  0.88781000  0.18872000  0.18243000  1
  C  C136  1  0.88396000  0.25641000  0.20529000  1
  C  C137  1  0.93797000  0.26952000  0.26568000  1
  C  C138  1  0.99612000  0.21624000  0.30268000  1
  C  C139  1  0.71100000  0.01915000  0.34095000  1
  C  C140  1  0.78032000  0.97460000  0.29701000  1
  C  C141  1  0.84298000  0.91166000  0.31557000  1
  C  C142  1  0.83709000  0.89087000  0.37815000  1
  C  C143  1  0.76863000  0.93461000  0.42196000  1
  C  C144  1  0.70790000  0.99837000  0.40399000  1
  C  C145  1  0.57006000  0.08941000  0.26953000  1
  C  C146  1  0.51629000  0.16178000  0.25663000  1
  C  C147  1  0.41548000  0.18266000  0.20940000  1
  C  C148  1  0.38177000  0.25306000  0.20418000  1
  C  C149  1  0.45083000  0.30126000  0.24404000  1
  C  C150  1  0.54852000  0.27663000  0.29072000  1
  C  C151  1  0.63210000  0.31930000  0.33855000  1
  C  C152  1  0.75685000  0.30948000  0.43882000  1
  C  C153  1  0.72087000  0.28352000  0.49864000  1
  C  C154  1  0.78950000  0.31186000  0.55181000  1
  C  C155  1  0.89649000  0.36540000  0.54659000  1
  C  C156  1  0.93591000  0.38981000  0.48731000  1
  C  C157  1  0.86641000  0.36249000  0.43395000  1
  C  C158  1  0.58871000  0.94195000  0.04773000  1
  C  C159  1  0.67321000  0.99640000  0.07482000  1
  C  C160  1  0.78431000  0.98346000  0.12021000  1
  C  C161  1  0.81336000  0.91606000  0.14008000  1
  C  C162  1  0.73185000  0.86173000  0.11300000  1
  C  C163  1  0.62094000  0.87414000  0.06707000  1
  C  C164  1  0.37500000  0.00656000  0.01008000  1
  C  C165  1  0.29485000  0.02697000  0.95059000  1
  C  C166  1  0.18570000  0.07932000  0.94448000  1
  C  C167  1  0.12885000  0.09371000  0.88465000  1
  C  C168  1  0.18049000  0.05660000  0.83253000  1
  C  C169  1  0.28722000  0.00371000  0.84237000  1
  C  C170  1  0.35027000  0.95569000  0.79325000  1
  C  C171  1  0.49564000  0.85184000  0.77957000  1
  C  C172  1  0.55209000  0.86465000  0.71888000  1
  C  C173  1  0.61206000  0.81127000  0.68249000  1
  C  C174  1  0.61634000  0.74359000  0.70519000  1
  C  C175  1  0.56226000  0.73052000  0.76551000  1
  C  C176  1  0.50366000  0.78377000  0.80255000  1
  C  C177  1  0.78879000  0.98164000  0.84117000  1
  C  C178  1  0.72000000  0.02601000  0.79704000  1
  C  C179  1  0.65697000  0.08887000  0.81565000  1
  C  C180  1  0.66235000  0.10969000  0.87829000  1
  C  C181  1  0.73061000  0.06612000  0.92222000  1
  C  C182  1  0.79157000  0.00242000  0.90421000  1
  C  C183  1  0.93180000  0.91143000  0.77053000  1
  C  C184  1  0.98625000  0.83928000  0.75749000  1
  C  C185  1  0.08599000  0.81801000  0.71002000  1
  C  C186  1  0.11832000  0.74750000  0.70452000  1
  C  C187  1  0.04904000  0.69960000  0.74444000  1
  C  C188  1  0.95244000  0.72472000  0.79129000  1
  C  C189  1  0.86878000  0.68288000  0.83932000  1
  C  C190  1  0.74377000  0.69215000  0.93907000  1
  C  C191  1  0.77983000  0.71752000  0.99915000  1
  C  C192  1  0.71134000  0.68853000  0.05195000  1
  C  C193  1  0.60480000  0.63486000  0.04606000  1
  C  C194  1  0.56583000  0.61084000  0.98652000  1
  C  C195  1  0.63499000  0.63887000  0.93352000  1
  C  C196  1  0.08803000  0.55766000  0.95183000  1
  C  C197  1  0.17298000  0.50319000  0.92492000  1
  C  C198  1  0.28441000  0.51621000  0.87970000  1
  C  C199  1  0.31330000  0.58365000  0.85993000  1
  C  C200  1  0.23142000  0.63798000  0.88692000  1
  C  C201  1  0.12013000  0.62544000  0.93254000  1
  C  C202  1  0.87339000  0.49387000  0.98958000  1
  C  C203  1  0.79382000  0.47357000  0.04912000  1
  C  C204  1  0.68509000  0.42122000  0.05567000  1
  C  C205  1  0.62990000  0.40698000  0.11574000  1
  C  C206  1  0.68319000  0.44402000  0.16764000  1
  C  C207  1  0.78974000  0.49677000  0.15734000  1
  C  C208  1  0.85528000  0.54463000  0.20592000  1
  C  C209  1  0.99878000  0.64869000  0.21948000  1
  C  C210  1  0.05524000  0.63579000  0.28017000  1
  C  C211  1  0.11340000  0.68916000  0.31696000  1
  C  C212  1  0.11626000  0.75698000  0.29462000  1
  C  C213  1  0.06268000  0.77019000  0.23420000  1
  C  C214  1  0.00569000  0.71690000  0.19675000  1
  C  C215  1  0.28858000  0.51873000  0.15880000  1
  C  C216  1  0.21958000  0.47441000  0.20282000  1
  C  C217  1  0.15695000  0.41149000  0.18426000  1
  C  C218  1  0.16273000  0.39056000  0.12167000  1
  C  C219  1  0.23108000  0.43407000  0.07776000  1
  C  C220  1  0.29179000  0.49784000  0.09573000  1
  C  C221  1  0.43059000  0.58911000  0.22990000  1
  C  C222  1  0.48417000  0.66143000  0.24301000  1
  C  C223  1  0.58359000  0.68271000  0.29059000  1
  C  C224  1  0.61739000  0.75309000  0.29573000  1
  C  C225  1  0.54908000  0.80108000  0.25553000  1
  C  C226  1  0.45209000  0.77603000  0.20869000  1
  C  C227  1  0.36819000  0.81797000  0.16061000  1
  C  C228  1  0.24280000  0.80840000  0.06091000  1
  C  C229  1  0.27898000  0.78278000  0.00095000  1
  C  C230  1  0.21068000  0.81162000  0.94800000  1
  C  C231  1  0.10407000  0.86533000  0.95363000  1
  C  C232  1  0.06477000  0.88956000  0.01306000  1
  C  C233  1  0.13387000  0.86175000  0.06624000  1
  C  C234  1  0.41164000  0.44199000  0.45191000  1
  C  C235  1  0.32743000  0.49646000  0.42479000  1
  C  C236  1  0.21588000  0.48346000  0.37961000  1
  C  C237  1  0.18644000  0.41599000  0.35989000  1
  C  C238  1  0.26790000  0.36166000  0.38695000  1
  C  C239  1  0.37896000  0.37415000  0.43280000  1
  C  C240  1  0.62535000  0.50627000  0.48957000  1
  C  C241  1  0.70537000  0.52675000  0.54926000  1
  C  C242  1  0.81428000  0.57914000  0.55546000  1
  C  C243  1  0.87103000  0.59373000  0.61531000  1
  C  C244  1  0.81947000  0.55677000  0.66740000  1
  C  C245  1  0.71299000  0.50382000  0.65764000  1
  C  C246  1  0.65050000  0.45603000  0.70707000  1
  C  C247  1  0.50554000  0.35206000  0.72053000  1
  C  C248  1  0.44910000  0.36492000  0.78125000  1
  C  C249  1  0.38868000  0.31168000  0.81748000  1
  C  C250  1  0.38415000  0.24400000  0.79462000  1
  C  C251  1  0.43824000  0.23084000  0.73425000  1
  C  C252  1  0.49711000  0.28399000  0.69736000  1
  C  C253  1  0.21114000  0.48107000  0.65904000  1
  C  C254  1  0.27979000  0.52561000  0.70308000  1
  C  C255  1  0.34242000  0.58847000  0.68453000  1
  C  C256  1  0.33686000  0.60916000  0.62192000  1
  C  C257  1  0.26871000  0.56546000  0.57797000  1
  C  C258  1  0.20809000  0.50174000  0.59597000  1
  C  C259  1  0.06760000  0.41103000  0.72988000  1
  C  C260  1  0.01452000  0.33858000  0.74264000  1
  C  C261  1  0.91431000  0.31754000  0.78992000  1
  C  C262  1  0.88200000  0.24704000  0.79522000  1
  C  C263  1  0.95128000  0.19897000  0.75524000  1
  C  C264  1  0.04882000  0.22381000  0.70866000  1
  C  C265  1  0.13239000  0.18154000  0.66057000  1
  C  C266  1  0.25618000  0.19133000  0.56047000  1
  C  C267  1  0.22034000  0.21690000  0.50051000  1
  C  C268  1  0.28930000  0.18819000  0.44760000  1
  C  C269  1  0.39612000  0.13458000  0.45321000  1
  C  C270  1  0.43528000  0.11051000  0.51265000  1
  C  C271  1  0.36563000  0.13824000  0.56577000  1
  N  N272  1  0.02108000  0.04384000  0.50074000  1
  N  N273  1  0.16064000  0.00902000  0.39962000  1
  N  N274  1  0.06468000  0.09625000  0.31819000  1
  N  N275  1  0.64915000  0.08381000  0.32397000  1
  N  N276  1  0.57429000  0.20885000  0.29580000  1
  N  N277  1  0.68311000  0.28002000  0.38663000  1
  N  N278  1  0.47948000  0.95572000  0.00075000  1
  N  N279  1  0.33985000  0.99143000  0.90013000  1
  N  N280  1  0.43500000  0.90377000  0.81851000  1
  N  N281  1  0.85134000  0.91698000  0.82460000  1
  N  N282  1  0.92778000  0.79249000  0.79656000  1
  N  N283  1  0.81739000  0.72213000  0.88720000  1
  N  N284  1  0.97876000  0.54419000  0.99880000  1
  N  N285  1  0.84015000  0.50906000  0.09937000  1
  N  N286  1  0.93844000  0.59665000  0.18052000  1
  N  N287  1  0.35064000  0.58338000  0.17576000  1
  N  N288  1  0.42677000  0.70826000  0.20363000  1
  N  N289  1  0.31672000  0.77849000  0.11283000  1
  N  N290  1  0.52059000  0.45573000  0.49899000  1
  N  N291  1  0.66052000  0.49138000  0.59982000  1
  N  N292  1  0.56628000  0.40389000  0.68177000  1
  N  N293  1  0.14919000  0.41652000  0.67602000  1
  N  N294  1  0.07369000  0.29162000  0.70368000  1
  N  N295  1  0.18245000  0.22099000  0.61255000  1
  O  O296  1  0.85247000  0.14940000  0.42288000  1
  O  O297  1  0.15922000  0.96167000  0.55913000  1
  O  O298  1  0.18146000  0.03434000  0.23614000  1
  O  O299  1  0.53871000  0.04229000  0.23137000  1
  O  O300  1  0.64422000  0.38316000  0.33008000  1
  O  O301  1  0.64033000  0.84751000  0.92228000  1
  O  O302  1  0.34181000  0.03728000  0.06029000  1
  O  O303  1  0.31806000  0.96562000  0.73666000  1
  O  O304  1  0.96247000  0.95860000  0.73262000  1
  O  O305  1  0.85655000  0.61896000  0.83145000  1
  O  O306  1  0.15148000  0.64671000  0.07636000  1
  O  O307  1  0.83978000  0.46343000  0.93935000  1
  O  O308  1  0.82618000  0.53437000  0.26274000  1
  O  O309  1  0.46246000  0.54192000  0.26774000  1
  O  O310  1  0.35578000  0.88192000  0.16844000  1
  O  O311  1  0.36064000  0.34747000  0.57821000  1
  O  O312  1  0.65864000  0.53660000  0.43923000  1
  O  O313  1  0.68256000  0.46628000  0.76363000  1
  O  O314  1  0.03407000  0.45813000  0.76771000  1
  O  O315  1  0.14510000  0.11763000  0.66878000  1
