# generated using pymatgen
data_ZnH10C16N3O4
_symmetry_space_group_name_H-M   'P 1'
_cell_length_a   7.49607000
_cell_length_b   9.72428000
_cell_length_c   13.54514000
_cell_angle_alpha   70.74163000
_cell_angle_beta   75.53440000
_cell_angle_gamma   87.64622000
_symmetry_Int_Tables_number   1
_chemical_formula_structural   ZnH10C16N3O4
_chemical_formula_sum   'Zn2 H20 C32 N6 O8'
_cell_volume   901.63373347
_cell_formula_units_Z   2
loop_
 _symmetry_equiv_pos_site_id
 _symmetry_equiv_pos_as_xyz
  1  'x, y, z'
loop_
 _atom_site_type_symbol
 _atom_site_label
 _atom_site_symmetry_multiplicity
 _atom_site_fract_x
 _atom_site_fract_y
 _atom_site_fract_z
 _atom_site_occupancy
  Zn  Zn1  1  0.99989000  0.50057000  0.99972000  1.0
  Zn  Zn2  1  0.49865000  0.99986000  0.99987000  1.0
  H  H1  1  0.86391000  0.27109000  0.22331000  1.0
  H  H2  1  0.01172000  0.71160000  0.12038000  1.0
  H  H3  1  0.87383000  0.24009000  0.41313000  1.0
  H  H4  1  0.02600000  0.70026000  0.30345000  1.0
  H  H5  1  0.93100000  0.33893000  0.54216000  1.0
  H  H6  1  0.33680000  0.69457000  0.15333000  1.0
  H  H7  1  0.71575000  0.97749000  0.17022000  1.0
  H  H8  1  0.34005000  0.51962000  0.33418000  1.0
  H  H9  1  0.71834000  0.82543000  0.35643000  1.0
  H  H10  1  0.61594000  0.61847000  0.51069000  1.0
  H  H11  1  0.13569000  0.72960000  0.77601000  1.0
  H  H12  1  0.98640000  0.28937000  0.87976000  1.0
  H  H13  1  0.12704000  0.75984000  0.58609000  1.0
  H  H14  1  0.97256000  0.29993000  0.69676000  1.0
  H  H15  1  0.06929000  0.66081000  0.45751000  1.0
  H  H16  1  0.66107000  0.30448000  0.84706000  1.0
  H  H17  1  0.28098000  0.02334000  0.82925000  1.0
  H  H18  1  0.66006000  0.47959000  0.66587000  1.0
  H  H19  1  0.28041000  0.17565000  0.64261000  1.0
  H  H20  1  0.38451000  0.38184000  0.48869000  1.0
  C  C1  1  0.75383000  0.74585000  0.94803000  1.0
  C  C2  1  0.56611000  0.36568000  0.03262000  1.0
  C  C3  1  0.61721000  0.61764000  0.97445000  1.0
  C  C4  1  0.90145000  0.36189000  0.24549000  1.0
  C  C5  1  0.98245000  0.60930000  0.18775000  1.0
  C  C6  1  0.64467000  0.21874000  0.07532000  1.0
  C  C7  1  0.90638000  0.34634000  0.35052000  1.0
  C  C8  1  0.99040000  0.60150000  0.29063000  1.0
  C  C9  1  0.95572000  0.46696000  0.37517000  1.0
  C  C10  1  0.97089000  0.44770000  0.48382000  1.0
  C  C11  1  0.42223000  0.71666000  0.20087000  1.0
  C  C12  1  0.63206000  0.87671000  0.20976000  1.0
  C  C13  1  0.42358000  0.62071000  0.30273000  1.0
  C  C14  1  0.63309000  0.78999000  0.31422000  1.0
  C  C15  1  0.52857000  0.65761000  0.36412000  1.0
  C  C16  1  0.53795000  0.56818000  0.47251000  1.0
  C  C17  1  0.24494000  0.25506000  0.05167000  1.0
  C  C18  1  0.43234000  0.63539000  0.96762000  1.0
  C  C19  1  0.38133000  0.38336000  0.02565000  1.0
  C  C20  1  0.09817000  0.63869000  0.75395000  1.0
  C  C21  1  0.01613000  0.39141000  0.81218000  1.0
  C  C22  1  0.35290000  0.78206000  0.92479000  1.0
  C  C23  1  0.09376000  0.65382000  0.64892000  1.0
  C  C24  1  0.00852000  0.39879000  0.70933000  1.0
  C  C25  1  0.04410000  0.53305000  0.62455000  1.0
  C  C26  1  0.02928000  0.55207000  0.51588000  1.0
  C  C27  1  0.57592000  0.28287000  0.79918000  1.0
  C  C28  1  0.36537000  0.12377000  0.78979000  1.0
  C  C29  1  0.57576000  0.37890000  0.69716000  1.0
  C  C30  1  0.36551000  0.21055000  0.68516000  1.0
  C  C31  1  0.47101000  0.34251000  0.63546000  1.0
  C  C32  1  0.46240000  0.43204000  0.52697000  1.0
  N  N1  1  0.68104000  0.48292000  0.00630000  1.0
  N  N2  1  0.94182000  0.49103000  0.16476000  1.0
  N  N3  1  0.52331000  0.84408000  0.15410000  1.0
  N  N4  1  0.31754000  0.51805000  0.99390000  1.0
  N  N5  1  0.05716000  0.50981000  0.83487000  1.0
  N  N6  1  0.47387000  0.15589000  0.84579000  1.0
  O  O1  1  0.91754000  0.71455000  0.95561000  1.0
  O  O2  1  0.69843000  0.87382000  0.91946000  1.0
  O  O3  1  0.69378000  0.14525000  0.01029000  1.0
  O  O4  1  0.65856000  0.18763000  0.17005000  1.0
  O  O5  1  0.08219000  0.28649000  0.04196000  1.0
  O  O6  1  0.30021000  0.12724000  0.08132000  1.0
  O  O7  1  0.30131000  0.85532000  0.98981000  1.0
  O  O8  1  0.34089000  0.81283000  0.82977000  1.0
