# generated using pymatgen
data_Cu2H14C22I(NO)4
_symmetry_space_group_name_H-M   'P 1'
_cell_length_a   15.24483000
_cell_length_b   24.26635000
_cell_length_c   24.28449000
_cell_angle_alpha   115.73519000
_cell_angle_beta   102.01261000
_cell_angle_gamma   102.11050000
_symmetry_Int_Tables_number   1
_chemical_formula_structural   Cu2H14C22I(NO)4
_chemical_formula_sum   'Cu12 H84 C132 I6 N24 O24'
_cell_volume   7441.90284704
_cell_formula_units_Z   6
loop_
 _symmetry_equiv_pos_site_id
 _symmetry_equiv_pos_as_xyz
  1  'x, y, z'
loop_
 _atom_site_type_symbol
 _atom_site_label
 _atom_site_symmetry_multiplicity
 _atom_site_fract_x
 _atom_site_fract_y
 _atom_site_fract_z
 _atom_site_occupancy
  Cu  Cu0  1  0.93512000  0.52251000  0.01725000  1
  Cu  Cu1  1  0.54713000  0.00491000  0.55216000  1
  Cu  Cu2  1  0.91779000  0.98273000  0.50500000  1
  Cu  Cu3  1  0.99521000  0.44780000  0.45276000  1
  Cu  Cu4  1  0.41275000  0.49464000  0.47733000  1
  Cu  Cu5  1  0.54285000  0.54699000  0.99495000  1
  Cu  Cu6  1  0.06488000  0.47749000  0.98275000  1
  Cu  Cu7  1  0.45287000  0.99509000  0.44784000  1
  Cu  Cu8  1  0.08222000  0.01726000  0.49500000  1
  Cu  Cu9  1  0.00480000  0.55220000  0.54724000  1
  Cu  Cu10  1  0.58726000  0.50536000  0.52267000  1
  Cu  Cu11  1  0.45716000  0.45301000  0.00505000  1
  H  H12  1  0.81834000  0.55438000  0.86165000  1
  H  H13  1  0.77276000  0.56357000  0.76162000  1
  H  H14  1  0.97162000  0.47070000  0.69515000  1
  H  H15  1  0.01811000  0.46437000  0.79650000  1
  H  H16  1  0.69119000  0.50074000  0.64148000  1
  H  H17  1  0.79077000  0.53275000  0.50754000  1
  H  H18  1  0.99066000  0.54792000  0.66307000  1
  H  H19  1  0.68501000  0.34180000  0.92435000  1
  H  H20  1  0.56410000  0.23178000  0.84443000  1
  H  H21  1  0.78199000  0.16865000  0.77371000  1
  H  H22  1  0.90258000  0.27827000  0.85582000  1
  H  H23  1  0.52201000  0.10677000  0.81123000  1
  H  H24  1  0.41400000  0.96683000  0.61503000  1
  H  H25  1  0.64201000  0.13046000  0.67308000  1
  H  H26  1  0.95622000  0.13890000  0.69273000  1
  H  H27  1  0.01114000  0.23892000  0.80215000  1
  H  H28  1  0.27624000  0.30519000  0.77561000  1
  H  H29  1  0.22125000  0.20378000  0.66772000  1
  H  H30  1  0.04958000  0.35881000  0.85922000  1
  H  H31  1  0.28213000  0.49266000  0.02541000  1
  H  H32  1  0.32734000  0.33702000  0.88529000  1
  H  H33  1  0.76015000  0.07593000  0.41772000  1
  H  H34  1  0.71951000  0.15559000  0.38710000  1
  H  H35  1  0.00867000  0.22605000  0.39514000  1
  H  H36  1  0.04635000  0.14398000  0.42307000  1
  H  H37  1  0.71078000  0.18880000  0.29578000  1
  H  H38  1  0.79861000  0.38510000  0.35174000  1
  H  H39  1  0.96799000  0.32738000  0.45772000  1
  H  H40  1  0.26308000  0.30659000  0.44529000  1
  H  H41  1  0.20896000  0.19736000  0.43658000  1
  H  H42  1  0.50070000  0.22464000  0.52947000  1
  H  H43  1  0.55302000  0.33229000  0.53536000  1
  H  H44  1  0.19004000  0.14033000  0.49926000  1
  H  H45  1  0.25708000  0.97417000  0.46705000  1
  H  H46  1  0.44290000  0.11498000  0.45255000  1
  H  H47  1  0.34326000  0.58229000  0.65840000  1
  H  H48  1  0.33228000  0.61213000  0.76840000  1
  H  H49  1  0.61320000  0.60454000  0.83108000  1
  H  H50  1  0.62428000  0.57748000  0.72162000  1
  H  H51  1  0.41450000  0.70375000  0.89299000  1
  H  H52  1  0.44773000  0.64779000  0.03325000  1
  H  H53  1  0.51123000  0.54210000  0.86937000  1
  H  H54  1  0.18167000  0.44562000  0.13835000  1
  H  H55  1  0.22724000  0.43643000  0.23839000  1
  H  H56  1  0.02839000  0.52930000  0.30485000  1
  H  H57  1  0.98190000  0.53562000  0.20350000  1
  H  H58  1  0.30881000  0.49926000  0.35852000  1
  H  H59  1  0.20924000  0.46725000  0.49246000  1
  H  H60  1  0.00935000  0.45208000  0.33693000  1
  H  H61  1  0.31498000  0.65820000  0.07565000  1
  H  H62  1  0.43590000  0.76822000  0.15557000  1
  H  H63  1  0.21801000  0.83135000  0.22630000  1
  H  H64  1  0.09742000  0.72173000  0.14419000  1
  H  H65  1  0.47799000  0.89322000  0.18878000  1
  H  H66  1  0.58600000  0.03317000  0.38497000  1
  H  H67  1  0.35800000  0.86953000  0.32693000  1
  H  H68  1  0.04378000  0.86109000  0.30727000  1
  H  H69  1  0.98887000  0.76108000  0.19785000  1
  H  H70  1  0.72377000  0.69481000  0.22439000  1
  H  H71  1  0.77875000  0.79622000  0.33228000  1
  H  H72  1  0.95042000  0.64119000  0.14078000  1
  H  H73  1  0.71788000  0.50734000  0.97459000  1
  H  H74  1  0.67267000  0.66298000  0.11471000  1
  H  H75  1  0.23985000  0.92407000  0.58228000  1
  H  H76  1  0.28050000  0.84441000  0.61290000  1
  H  H77  1  0.99134000  0.77395000  0.60486000  1
  H  H78  1  0.95365000  0.85602000  0.57693000  1
  H  H79  1  0.28923000  0.81120000  0.70422000  1
  H  H80  1  0.20139000  0.61490000  0.64827000  1
  H  H81  1  0.03202000  0.67261000  0.54229000  1
  H  H82  1  0.73693000  0.69341000  0.55472000  1
  H  H83  1  0.79105000  0.80264000  0.56342000  1
  H  H84  1  0.49930000  0.77536000  0.47053000  1
  H  H85  1  0.44698000  0.66771000  0.46464000  1
  H  H86  1  0.80997000  0.85967000  0.50075000  1
  H  H87  1  0.74293000  0.02583000  0.53295000  1
  H  H88  1  0.55711000  0.88501000  0.54745000  1
  H  H89  1  0.65674000  0.41771000  0.34161000  1
  H  H90  1  0.66772000  0.38787000  0.23160000  1
  H  H91  1  0.38680000  0.39546000  0.16893000  1
  H  H92  1  0.37572000  0.42252000  0.27838000  1
  H  H93  1  0.58551000  0.29625000  0.10701000  1
  H  H94  1  0.55227000  0.35221000  0.96676000  1
  H  H95  1  0.48878000  0.45790000  0.13063000  1
  C  C96  1  0.94920000  0.50560000  0.89567000  1
  C  C97  1  0.92060000  0.50900000  0.83478000  1
  C  C98  1  0.85064000  0.53623000  0.82449000  1
  C  C99  1  0.82505000  0.54062000  0.76843000  1
  C  C100  1  0.86904000  0.51762000  0.72160000  1
  C  C101  1  0.93863000  0.48974000  0.73186000  1
  C  C102  1  0.96426000  0.48561000  0.78802000  1
  C  C103  1  0.84503000  0.52309000  0.66265000  1
  C  C104  1  0.75233000  0.51288000  0.62712000  1
  C  C105  1  0.80624000  0.53092000  0.55247000  1
  C  C106  1  0.91636000  0.53855000  0.63841000  1
  C  C107  1  0.87317000  0.38429000  0.93763000  1
  C  C108  1  0.80089000  0.31709000  0.89403000  1
  C  C109  1  0.70564000  0.30333000  0.89167000  1
  C  C110  1  0.63827000  0.24176000  0.84691000  1
  C  C111  1  0.66461000  0.19326000  0.80270000  1
  C  C112  1  0.76074000  0.20667000  0.80652000  1
  C  C113  1  0.82806000  0.26759000  0.85215000  1
  C  C114  1  0.59351000  0.12966000  0.75126000  1
  C  C115  1  0.52442000  0.09120000  0.76228000  1
  C  C116  1  0.46540000  0.01326000  0.65500000  1
  C  C117  1  0.59288000  0.10383000  0.68716000  1
  C  C118  1  0.05388000  0.10494000  0.60960000  1
  C  C119  1  0.08565000  0.16560000  0.67410000  1
  C  C120  1  0.02583000  0.17585000  0.71165000  1
  C  C121  1  0.05648000  0.23186000  0.77224000  1
  C  C122  1  0.14736000  0.27860000  0.79615000  1
  C  C123  1  0.20665000  0.26842000  0.75796000  1
  C  C124  1  0.17603000  0.21234000  0.69757000  1
  C  C125  1  0.18225000  0.33751000  0.86062000  1
  C  C126  1  0.12491000  0.37304000  0.88582000  1
  C  C127  1  0.25305000  0.44769000  0.97866000  1
  C  C128  1  0.27762000  0.36175000  0.90043000  1
  C  C129  1  0.93396000  0.06181000  0.44636000  1
  C  C130  1  0.90615000  0.10580000  0.42307000  1
  C  C131  1  0.81343000  0.10836000  0.41167000  1
  C  C132  1  0.79121000  0.15315000  0.39476000  1
  C  C133  1  0.86194000  0.19731000  0.39050000  1
  C  C134  1  0.95423000  0.19339000  0.40029000  1
  C  C135  1  0.97553000  0.14769000  0.41568000  1
  C  C136  1  0.84224000  0.24881000  0.37838000  1
  C  C137  1  0.76212000  0.23777000  0.32904000  1
  C  C138  1  0.81002000  0.34515000  0.35831000  1
  C  C139  1  0.90514000  0.31307000  0.41679000  1
  C  C140  1  0.44303000  0.39011000  0.49445000  1
  C  C141  1  0.41088000  0.32561000  0.49077000  1
  C  C142  1  0.31376000  0.28782000  0.46353000  1
  C  C143  1  0.28410000  0.22736000  0.45934000  1
  C  C144  1  0.35123000  0.20373000  0.48247000  1
  C  C145  1  0.44857000  0.24209000  0.51025000  1
  C  C146  1  0.47804000  0.30239000  0.51420000  1
  C  C147  1  0.32180000  0.13929000  0.47709000  1
  C  C148  1  0.23904000  0.11383000  0.48707000  1
  C  C149  1  0.27473000  0.02102000  0.46896000  1
  C  C150  1  0.37775000  0.09964000  0.46177000  1
  C  C151  1  0.48911000  0.55381000  0.61595000  1
  C  C152  1  0.48403000  0.57721000  0.68311000  1
  C  C153  1  0.40243000  0.58834000  0.69688000  1
  C  C154  1  0.39663000  0.60498000  0.75842000  1
  C  C155  1  0.47143000  0.60929000  0.80682000  1
  C  C156  1  0.55412000  0.59973000  0.79331000  1
  C  C157  1  0.56057000  0.58465000  0.73244000  1
  C  C158  1  0.46376000  0.62120000  0.87032000  1
  C  C159  1  0.43285000  0.67052000  0.90868000  1
  C  C160  1  0.45230000  0.64128000  0.98672000  1
  C  C161  1  0.48891000  0.58287000  0.89609000  1
  C  C162  1  0.05081000  0.49439000  0.10433000  1
  C  C163  1  0.07941000  0.49100000  0.16522000  1
  C  C164  1  0.14937000  0.46376000  0.17551000  1
  C  C165  1  0.17496000  0.45938000  0.23157000  1
  C  C166  1  0.13096000  0.48237000  0.27840000  1
  C  C167  1  0.06138000  0.51026000  0.26815000  1
  C  C168  1  0.03574000  0.51439000  0.21198000  1
  C  C169  1  0.15497000  0.47690000  0.33735000  1
  C  C170  1  0.24767000  0.48712000  0.37288000  1
  C  C171  1  0.19376000  0.46908000  0.44753000  1
  C  C172  1  0.08365000  0.46145000  0.36160000  1
  C  C173  1  0.12683000  0.61571000  0.06238000  1
  C  C174  1  0.19910000  0.68291000  0.10597000  1
  C  C175  1  0.29436000  0.69667000  0.10833000  1
  C  C176  1  0.36172000  0.75823000  0.15310000  1
  C  C177  1  0.33540000  0.80674000  0.19731000  1
  C  C178  1  0.23926000  0.79333000  0.19348000  1
  C  C179  1  0.17194000  0.73241000  0.14786000  1
  C  C180  1  0.40649000  0.87034000  0.24874000  1
  C  C181  1  0.47559000  0.90879000  0.23773000  1
  C  C182  1  0.53460000  0.98673000  0.34501000  1
  C  C183  1  0.40713000  0.89617000  0.31284000  1
  C  C184  1  0.94613000  0.89506000  0.39041000  1
  C  C185  1  0.91435000  0.83440000  0.32590000  1
  C  C186  1  0.97417000  0.82414000  0.28835000  1
  C  C187  1  0.94352000  0.76814000  0.22777000  1
  C  C188  1  0.85265000  0.72139000  0.20385000  1
  C  C189  1  0.79335000  0.73157000  0.24204000  1
  C  C190  1  0.82397000  0.78766000  0.30243000  1
  C  C191  1  0.81776000  0.66248000  0.13938000  1
  C  C192  1  0.87509000  0.62696000  0.11418000  1
  C  C193  1  0.74695000  0.55230000  0.02135000  1
  C  C194  1  0.72238000  0.63825000  0.09957000  1
  C  C195  1  0.06605000  0.93819000  0.55364000  1
  C  C196  1  0.09386000  0.89419000  0.57693000  1
  C  C197  1  0.18657000  0.89164000  0.58834000  1
  C  C198  1  0.20880000  0.84685000  0.60524000  1
  C  C199  1  0.13806000  0.80269000  0.60950000  1
  C  C200  1  0.04577000  0.80661000  0.59972000  1
  C  C201  1  0.02448000  0.85231000  0.58432000  1
  C  C202  1  0.15776000  0.75119000  0.62162000  1
  C  C203  1  0.23789000  0.76223000  0.67096000  1
  C  C204  1  0.18998000  0.65485000  0.64170000  1
  C  C205  1  0.09487000  0.68692000  0.58321000  1
  C  C206  1  0.55697000  0.60988000  0.50555000  1
  C  C207  1  0.58912000  0.67439000  0.50923000  1
  C  C208  1  0.68624000  0.71218000  0.53647000  1
  C  C209  1  0.71590000  0.77264000  0.54066000  1
  C  C210  1  0.64878000  0.79626000  0.51754000  1
  C  C211  1  0.55144000  0.75791000  0.48975000  1
  C  C212  1  0.52196000  0.69761000  0.48580000  1
  C  C213  1  0.67821000  0.86071000  0.52291000  1
  C  C214  1  0.76097000  0.88617000  0.51293000  1
  C  C215  1  0.72527000  0.97898000  0.53104000  1
  C  C216  1  0.62226000  0.90036000  0.53824000  1
  C  C217  1  0.51089000  0.44619000  0.38406000  1
  C  C218  1  0.51598000  0.42279000  0.31689000  1
  C  C219  1  0.59758000  0.41166000  0.30312000  1
  C  C220  1  0.60338000  0.39502000  0.24159000  1
  C  C221  1  0.52858000  0.39071000  0.19318000  1
  C  C222  1  0.44588000  0.40027000  0.20669000  1
  C  C223  1  0.43943000  0.41535000  0.26757000  1
  C  C224  1  0.53624000  0.37880000  0.12969000  1
  C  C225  1  0.56716000  0.32948000  0.09132000  1
  C  C226  1  0.54771000  0.35872000  0.01328000  1
  C  C227  1  0.51109000  0.41713000  0.10392000  1
  I  I228  1  0.61315000  0.10259000  0.53040000  1
  I  I229  1  0.08196000  0.46935000  0.57185000  1
  I  I230  1  0.51138000  0.42763000  0.89803000  1
  I  I231  1  0.38685000  0.89741000  0.46960000  1
  I  I232  1  0.91804000  0.53064000  0.42815000  1
  I  I233  1  0.48863000  0.57237000  0.10197000  1
  N  N234  1  0.73370000  0.51711000  0.57268000  1
  N  N235  1  0.89780000  0.54192000  0.58342000  1
  N  N236  1  0.45985000  0.03362000  0.71440000  1
  N  N237  1  0.53029000  0.04529000  0.63896000  1
  N  N238  1  0.16047000  0.42739000  0.94456000  1
  N  N239  1  0.31385000  0.41683000  0.95875000  1
  N  N240  1  0.74526000  0.28565000  0.31935000  1
  N  N241  1  0.89067000  0.36129000  0.40646000  1
  N  N242  1  0.21591000  0.05499000  0.48256000  1
  N  N243  1  0.35565000  0.04119000  0.45832000  1
  N  N244  1  0.42605000  0.68022000  0.96631000  1
  N  N245  1  0.48500000  0.59317000  0.95463000  1
  N  N246  1  0.26631000  0.48289000  0.42733000  1
  N  N247  1  0.10221000  0.45808000  0.41659000  1
  N  N248  1  0.54016000  0.96637000  0.28560000  1
  N  N249  1  0.46971000  0.95471000  0.36104000  1
  N  N250  1  0.83954000  0.57261000  0.05544000  1
  N  N251  1  0.68615000  0.58317000  0.04125000  1
  N  N252  1  0.25475000  0.71435000  0.68065000  1
  N  N253  1  0.10934000  0.63871000  0.59354000  1
  N  N254  1  0.78410000  0.94501000  0.51745000  1
  N  N255  1  0.64436000  0.95881000  0.54168000  1
  N  N256  1  0.57396000  0.31978000  0.03369000  1
  N  N257  1  0.51501000  0.40682000  0.04538000  1
  O  O258  1  0.90282000  0.52436000  0.93444000  1
  O  O259  1  0.01780000  0.48424000  0.90373000  1
  O  O260  1  0.84405000  0.43003000  0.96936000  1
  O  O261  1  0.95877000  0.39063000  0.93816000  1
  O  O262  1  0.96854000  0.06631000  0.58900000  1
  O  O263  1  0.11501000  0.09685000  0.58060000  1
  O  O264  1  0.87233000  0.02958000  0.45948000  1
  O  O265  1  0.01916000  0.06140000  0.45271000  1
  O  O266  1  0.37808000  0.40991000  0.47514000  1
  O  O267  1  0.53301000  0.41993000  0.51661000  1
  O  O268  1  0.41414000  0.53940000  0.57018000  1
  O  O269  1  0.56870000  0.54854000  0.60981000  1
  O  O270  1  0.09719000  0.47563000  0.06556000  1
  O  O271  1  0.98221000  0.51575000  0.09627000  1
  O  O272  1  0.15594000  0.56997000  0.03064000  1
  O  O273  1  0.04122000  0.60937000  0.06184000  1
  O  O274  1  0.03147000  0.93369000  0.41101000  1
  O  O275  1  0.88499000  0.90314000  0.41940000  1
  O  O276  1  0.12767000  0.97042000  0.54052000  1
  O  O277  1  0.98085000  0.93859000  0.54730000  1
  O  O278  1  0.62192000  0.59009000  0.52486000  1
  O  O279  1  0.46700000  0.58007000  0.48340000  1
  O  O280  1  0.58587000  0.46060000  0.42982000  1
  O  O281  1  0.43130000  0.45146000  0.39019000  1
