# generated using pymatgen
data_ZnH11(C11O2)2
_symmetry_space_group_name_H-M   'P 1'
_cell_length_a   4.83666000
_cell_length_b   13.87954000
_cell_length_c   32.45484000
_cell_angle_alpha   90.01631000
_cell_angle_beta   90.13811000
_cell_angle_gamma   97.81733000
_symmetry_Int_Tables_number   1
_chemical_formula_structural   ZnH11(C11O2)2
_chemical_formula_sum   'Zn4 H44 C88 O16'
_cell_volume   2158.45937871
_cell_formula_units_Z   4
loop_
 _symmetry_equiv_pos_site_id
 _symmetry_equiv_pos_as_xyz
  1  'x, y, z'
loop_
 _atom_site_type_symbol
 _atom_site_label
 _atom_site_symmetry_multiplicity
 _atom_site_fract_x
 _atom_site_fract_y
 _atom_site_fract_z
 _atom_site_occupancy
  Zn  Zn0  1  0.75556000  0.40657000  0.47183000  1
  Zn  Zn1  1  0.75399000  0.40671000  0.02806000  1
  Zn  Zn2  1  0.24601000  0.59329000  0.97194000  1
  Zn  Zn3  1  0.24444000  0.59344000  0.52817000  1
  H  H4  1  0.84735000  0.86797000  0.14529000  1
  H  H5  1  0.68683000  0.37555000  0.38439000  1
  H  H6  1  0.92222000  0.91605000  0.66656000  1
  H  H7  1  0.32501000  0.44391000  0.60346000  1
  H  H8  1  0.61428000  0.62016000  0.17386000  1
  H  H9  1  0.58425000  0.20500000  0.83584000  1
  H  H10  1  0.67465000  0.55536000  0.10347000  1
  H  H11  1  0.51480000  0.27380000  0.59413000  1
  H  H12  1  0.62607000  0.01735000  0.14522000  1
  H  H13  1  0.48520000  0.72620000  0.40586000  1
  H  H14  1  0.51634000  0.27433000  0.90556000  1
  H  H15  1  0.32536000  0.44465000  0.89653000  1
  H  H16  1  0.67500000  0.55609000  0.39654000  1
  H  H17  1  0.89889000  0.34687000  0.74991000  1
  H  H18  1  0.17141000  0.71442000  0.67682000  1
  H  H19  1  0.61354000  0.62099000  0.32621000  1
  H  H20  1  0.58041000  0.76002000  0.75008000  1
  H  H21  1  0.41549000  0.79536000  0.33616000  1
  H  H22  1  0.92139000  0.91556000  0.83385000  1
  H  H23  1  0.07779000  0.08395000  0.33344000  1
  H  H24  1  0.41575000  0.79501000  0.16416000  1
  H  H25  1  0.06645000  0.82591000  0.60462000  1
  H  H26  1  0.31318000  0.62446000  0.61560000  1
  H  H27  1  0.62451000  0.01687000  0.35478000  1
  H  H28  1  0.41959000  0.23998000  0.24992000  1
  H  H29  1  0.48367000  0.72567000  0.09444000  1
  H  H30  1  0.10112000  0.65314000  0.25009000  1
  H  H31  1  0.68692000  0.37570000  0.11545000  1
  H  H32  1  0.37550000  0.98313000  0.64522000  1
  H  H33  1  0.83316000  0.28498000  0.17625000  1
  H  H34  1  0.84684000  0.86782000  0.35479000  1
  H  H35  1  0.06602000  0.82551000  0.89576000  1
  H  H36  1  0.38646000  0.37901000  0.67379000  1
  H  H37  1  0.38573000  0.37984000  0.82614000  1
  H  H38  1  0.16684000  0.71502000  0.82375000  1
  H  H39  1  0.58451000  0.20465000  0.66384000  1
  H  H40  1  0.93356000  0.17409000  0.39538000  1
  H  H41  1  0.82860000  0.28559000  0.32318000  1
  H  H42  1  0.37393000  0.98265000  0.85478000  1
  H  H43  1  0.15265000  0.13203000  0.85470000  1
  H  H44  1  0.07862000  0.08444000  0.16615000  1
  H  H45  1  0.93398000  0.17450000  0.10423000  1
  H  H46  1  0.15316000  0.13218000  0.64521000  1
  H  H47  1  0.31308000  0.62431000  0.88455000  1
  C  C48  1  0.68392000  0.98833000  0.25001000  1
  C  C49  1  0.09909000  0.59998000  0.44820000  1
  C  C50  1  0.78782000  0.85249000  0.84577000  1
  C  C51  1  0.91295000  0.36683000  0.59516000  1
  C  C52  1  0.49132000  0.16894000  0.24992000  1
  C  C53  1  0.53006000  0.12437000  0.21219000  1
  C  C54  1  0.19762000  0.10014000  0.74997000  1
  C  C55  1  0.02078000  0.72275000  0.25007000  1
  C  C56  1  0.53639000  0.82391000  0.67431000  1
  C  C57  1  0.08705000  0.63317000  0.40484000  1
  C  C58  1  0.90092000  0.40002000  0.55180000  1
  C  C59  1  0.21631000  0.34009000  0.42851000  1
  C  C60  1  0.86316000  0.85560000  0.28824000  1
  C  C61  1  0.25525000  0.74175000  0.15074000  1
  C  C62  1  0.86359000  0.85572000  0.21185000  1
  C  C63  1  0.03141000  0.23445000  0.78759000  1
  C  C64  1  0.74476000  0.25826000  0.84926000  1
  C  C65  1  0.62204000  0.03215000  0.28829000  1
  C  C66  1  0.35711000  0.74174000  0.84028000  1
  C  C67  1  0.29933000  0.28267000  0.39291000  1
  C  C68  1  0.37797000  0.96786000  0.71171000  1
  C  C69  1  0.32162000  0.01529000  0.82583000  1
  C  C70  1  0.79844000  0.90130000  0.17422000  1
  C  C71  1  0.50868000  0.83106000  0.75007000  1
  C  C72  1  0.44568000  0.68887000  0.62659000  1
  C  C73  1  0.70023000  0.71674000  0.89301000  1
  C  C74  1  0.21092000  0.14718000  0.34543000  1
  C  C75  1  0.78299000  0.65887000  0.92854000  1
  C  C76  1  0.52876000  0.12420000  0.28768000  1
  C  C77  1  0.78909000  0.85283000  0.65457000  1
  C  C78  1  0.67839000  0.98471000  0.17417000  1
  C  C79  1  0.87696000  0.80029000  0.62139000  1
  C  C80  1  0.09817000  0.59988000  0.05195000  1
  C  C81  1  0.15664000  0.39538000  0.61779000  1
  C  C82  1  0.47125000  0.87580000  0.71232000  1
  C  C83  1  0.37676000  0.96766000  0.78831000  1
  C  C84  1  0.91418000  0.36714000  0.90466000  1
  C  C85  1  0.84268000  0.60413000  0.11787000  1
  C  C86  1  0.15732000  0.39587000  0.88213000  1
  C  C87  1  0.53451000  0.82382000  0.82592000  1
  C  C88  1  0.70067000  0.71734000  0.60709000  1
  C  C89  1  0.46362000  0.17610000  0.32569000  1
  C  C90  1  0.25556000  0.74201000  0.34952000  1
  C  C91  1  0.13641000  0.14428000  0.78815000  1
  C  C92  1  0.19628000  0.35598000  0.84330000  1
  C  C93  1  0.29810000  0.70086000  0.11233000  1
  C  C94  1  0.01071000  0.71535000  0.32719000  1
  C  C95  1  0.19626000  0.35554000  0.65661000  1
  C  C96  1  0.70085000  0.29878000  0.61205000  1
  C  C97  1  0.46549000  0.17618000  0.17408000  1
  C  C98  1  0.62325000  0.03234000  0.21169000  1
  C  C99  1  0.21218000  0.14751000  0.15423000  1
  C  C100  1  0.44455000  0.68875000  0.87351000  1
  C  C101  1  0.01054000  0.71520000  0.17295000  1
  C  C102  1  0.84337000  0.60462000  0.38221000  1
  C  C103  1  0.64042000  0.25850000  0.34001000  1
  C  C104  1  0.20240000  0.09892000  0.67417000  1
  C  C105  1  0.96860000  0.76556000  0.21240000  1
  C  C106  1  0.20156000  0.09870000  0.82578000  1
  C  C107  1  0.80238000  0.89987000  0.25003000  1
  C  C108  1  0.80373000  0.64402000  0.15670000  1
  C  C109  1  0.35958000  0.74150000  0.65999000  1
  C  C110  1  0.78370000  0.65992000  0.57149000  1
  C  C111  1  0.29978000  0.28326000  0.10698000  1
  C  C112  1  0.46994000  0.87563000  0.78781000  1
  C  C113  1  0.08582000  0.63286000  0.09534000  1
  C  C114  1  0.98930000  0.28466000  0.67281000  1
  C  C115  1  0.80375000  0.64446000  0.34339000  1
  C  C116  1  0.21701000  0.34113000  0.07146000  1
  C  C117  1  0.64289000  0.25826000  0.15972000  1
  C  C118  1  0.90184000  0.40013000  0.94805000  1
  C  C119  1  0.70191000  0.29915000  0.88767000  1
  C  C120  1  0.31609000  0.01168000  0.74999000  1
  C  C121  1  0.74444000  0.25799000  0.65048000  1
  C  C122  1  0.12305000  0.19972000  0.37861000  1
  C  C123  1  0.12384000  0.20014000  0.12107000  1
  C  C124  1  0.67699000  0.98438000  0.32583000  1
  C  C125  1  0.87616000  0.79986000  0.87893000  1
  C  C126  1  0.79761000  0.90109000  0.32583000  1
  C  C127  1  0.03139000  0.23445000  0.71229000  1
  C  C128  1  0.55546000  0.31125000  0.12649000  1
  C  C129  1  0.55432000  0.31113000  0.37341000  1
  C  C130  1  0.29915000  0.70122000  0.38795000  1
  C  C131  1  0.96862000  0.76555000  0.28771000  1
  C  C132  1  0.97922000  0.27725000  0.74993000  1
  C  C133  1  0.98947000  0.28480000  0.82705000  1
  C  C134  1  0.13684000  0.14440000  0.71176000  1
  C  C135  1  0.32302000  0.01562000  0.67417000  1
  O  O136  1  0.30869000  0.63430000  0.02995000  1
  O  O137  1  0.11184000  0.45560000  0.96248000  1
  O  O138  1  0.38784000  0.41165000  0.44202000  1
  O  O139  1  0.88817000  0.54440000  0.03752000  1
  O  O140  1  0.30954000  0.63430000  0.47041000  1
  O  O141  1  0.38773000  0.41319000  0.05819000  1
  O  O142  1  0.69131000  0.36570000  0.97005000  1
  O  O143  1  0.02776000  0.68515000  0.94357000  1
  O  O144  1  0.97136000  0.31437000  0.44335000  1
  O  O145  1  0.11106000  0.45560000  0.53758000  1
  O  O146  1  0.02864000  0.68563000  0.55665000  1
  O  O147  1  0.97224000  0.31486000  0.05643000  1
  O  O148  1  0.69046000  0.36570000  0.52959000  1
  O  O149  1  0.61228000  0.58681000  0.94180000  1
  O  O150  1  0.61216000  0.58835000  0.55798000  1
  O  O151  1  0.88895000  0.54441000  0.46242000  1
