# generated using pymatgen
data_MgH6(C3O)4
_symmetry_space_group_name_H-M   'P 1'
_cell_length_a   11.09420000
_cell_length_b   11.09420000
_cell_length_c   21.04400000
_cell_angle_alpha   95.89300000
_cell_angle_beta   95.89300000
_cell_angle_gamma   107.21500000
_symmetry_Int_Tables_number   1
_chemical_formula_structural   MgH6(C3O)4
_chemical_formula_sum   'Mg6 H36 C72 O24'
_cell_volume   2436.76214258
_cell_formula_units_Z   6
loop_
 _symmetry_equiv_pos_site_id
 _symmetry_equiv_pos_as_xyz
  1  'x, y, z'
loop_
 _atom_site_type_symbol
 _atom_site_label
 _atom_site_symmetry_multiplicity
 _atom_site_fract_x
 _atom_site_fract_y
 _atom_site_fract_z
 _atom_site_occupancy
  Mg  Mg1  1  0.50102000  0.01784000  0.80571000  1.0
  Mg  Mg2  1  0.98216000  0.49898000  0.69429000  1.0
  Mg  Mg3  1  0.49898000  0.98216000  0.19429000  1.0
  Mg  Mg4  1  0.01784000  0.50102000  0.30571000  1.0
  Mg  Mg5  1  0.75266000  0.24734000  0.75000000  1.0
  Mg  Mg6  1  0.24734000  0.75266000  0.25000000  1.0
  H  H1  1  0.02040000  0.10140000  0.85070000  1.0
  H  H2  1  0.75760000  0.98740000  0.96960000  1.0
  H  H3  1  0.17580000  0.06540000  0.92200000  1.0
  H  H4  1  0.39360000  0.28020000  0.92300000  1.0
  H  H5  1  0.73570000  0.52330000  0.90250000  1.0
  H  H6  1  0.27510000  0.33650000  0.01060000  1.0
  H  H7  1  0.27770000  0.99450000  0.60400000  1.0
  H  H8  1  0.65650000  0.05010000  0.61080000  1.0
  H  H9  1  0.25180000  0.96860000  0.49290000  1.0
  H  H10  1  0.89860000  0.97960000  0.64930000  1.0
  H  H11  1  0.01260000  0.24240000  0.53040000  1.0
  H  H12  1  0.93460000  0.82420000  0.57800000  1.0
  H  H13  1  0.71980000  0.60640000  0.57700000  1.0
  H  H14  1  0.47670000  0.26430000  0.59750000  1.0
  H  H15  1  0.66350000  0.72490000  0.48940000  1.0
  H  H16  1  0.00550000  0.72230000  0.89600000  1.0
  H  H17  1  0.94990000  0.34350000  0.88920000  1.0
  H  H18  1  0.03140000  0.74820000  0.00710000  1.0
  H  H19  1  0.97960000  0.89860000  0.14930000  1.0
  H  H20  1  0.24240000  0.01260000  0.03040000  1.0
  H  H21  1  0.82420000  0.93460000  0.07800000  1.0
  H  H22  1  0.60640000  0.71980000  0.07700000  1.0
  H  H23  1  0.26430000  0.47670000  0.09750000  1.0
  H  H24  1  0.72490000  0.66350000  0.98940000  1.0
  H  H25  1  0.72230000  0.00550000  0.39600000  1.0
  H  H26  1  0.34350000  0.94990000  0.38920000  1.0
  H  H27  1  0.74820000  0.03140000  0.50710000  1.0
  H  H28  1  0.10140000  0.02040000  0.35070000  1.0
  H  H29  1  0.98740000  0.75760000  0.46960000  1.0
  H  H30  1  0.06540000  0.17580000  0.42200000  1.0
  H  H31  1  0.28020000  0.39360000  0.42300000  1.0
  H  H32  1  0.52330000  0.73570000  0.40250000  1.0
  H  H33  1  0.33650000  0.27510000  0.51060000  1.0
  H  H34  1  0.99450000  0.27770000  0.10400000  1.0
  H  H35  1  0.05010000  0.65650000  0.11080000  1.0
  H  H36  1  0.96860000  0.25180000  0.99290000  1.0
  C  C1  1  0.77550000  0.08150000  0.85892000  1.0
  C  C2  1  0.87300000  0.04960000  0.90441000  1.0
  C  C3  1  0.99950000  0.07210000  0.89021000  1.0
  C  C4  1  0.84300000  0.00600000  0.96090000  1.0
  C  C5  1  0.93680000  0.98760000  0.00732000  1.0
  C  C6  1  0.09220000  0.05220000  0.93284000  1.0
  C  C7  1  0.57518000  0.29362000  0.84980000  1.0
  C  C8  1  0.56442000  0.38718000  0.90472000  1.0
  C  C9  1  0.46019000  0.35801000  0.93671000  1.0
  C  C10  1  0.45030000  0.44230000  0.98998000  1.0
  C  C11  1  0.66370000  0.50290000  0.92484000  1.0
  C  C12  1  0.34280000  0.41380000  0.02377000  1.0
  C  C13  1  0.48414000  0.03786000  0.68935000  1.0
  C  C14  1  0.47168000  0.02572000  0.61758000  1.0
  C  C15  1  0.34935000  0.00005000  0.58198000  1.0
  C  C16  1  0.57477000  0.03223000  0.58644000  1.0
  C  C17  1  0.56137000  0.01243000  0.51776000  1.0
  C  C18  1  0.33390000  0.98330000  0.51627000  1.0
  C  C19  1  0.91850000  0.22450000  0.64108000  1.0
  C  C20  1  0.95040000  0.12700000  0.59559000  1.0
  C  C21  1  0.92790000  0.00050000  0.60979000  1.0
  C  C22  1  0.99400000  0.15700000  0.53910000  1.0
  C  C23  1  0.01240000  0.06320000  0.49268000  1.0
  C  C24  1  0.94780000  0.90780000  0.56716000  1.0
  C  C25  1  0.70638000  0.42482000  0.65020000  1.0
  C  C26  1  0.61282000  0.43558000  0.59528000  1.0
  C  C27  1  0.64199000  0.53981000  0.56329000  1.0
  C  C28  1  0.55770000  0.54970000  0.51002000  1.0
  C  C29  1  0.49710000  0.33630000  0.57516000  1.0
  C  C30  1  0.58620000  0.65720000  0.47623000  1.0
  C  C31  1  0.96214000  0.51586000  0.81065000  1.0
  C  C32  1  0.97428000  0.52832000  0.88242000  1.0
  C  C33  1  0.99995000  0.65065000  0.91802000  1.0
  C  C34  1  0.96777000  0.42523000  0.91356000  1.0
  C  C35  1  0.98757000  0.43863000  0.98224000  1.0
  C  C36  1  0.01670000  0.66610000  0.98373000  1.0
  C  C37  1  0.22450000  0.91850000  0.14108000  1.0
  C  C38  1  0.12700000  0.95040000  0.09559000  1.0
  C  C39  1  0.00050000  0.92790000  0.10979000  1.0
  C  C40  1  0.15700000  0.99400000  0.03910000  1.0
  C  C41  1  0.06320000  0.01240000  0.99268000  1.0
  C  C42  1  0.90780000  0.94780000  0.06716000  1.0
  C  C43  1  0.42482000  0.70638000  0.15020000  1.0
  C  C44  1  0.43558000  0.61282000  0.09528000  1.0
  C  C45  1  0.53981000  0.64199000  0.06329000  1.0
  C  C46  1  0.54970000  0.55770000  0.01002000  1.0
  C  C47  1  0.33630000  0.49710000  0.07516000  1.0
  C  C48  1  0.65720000  0.58620000  0.97623000  1.0
  C  C49  1  0.51586000  0.96214000  0.31065000  1.0
  C  C50  1  0.52832000  0.97428000  0.38242000  1.0
  C  C51  1  0.65065000  0.99995000  0.41802000  1.0
  C  C52  1  0.42523000  0.96777000  0.41356000  1.0
  C  C53  1  0.43863000  0.98757000  0.48224000  1.0
  C  C54  1  0.66610000  0.01670000  0.48373000  1.0
  C  C55  1  0.08150000  0.77550000  0.35892000  1.0
  C  C56  1  0.04960000  0.87300000  0.40441000  1.0
  C  C57  1  0.07210000  0.99950000  0.39021000  1.0
  C  C58  1  0.00600000  0.84300000  0.46090000  1.0
  C  C59  1  0.98760000  0.93680000  0.50732000  1.0
  C  C60  1  0.05220000  0.09220000  0.43284000  1.0
  C  C61  1  0.29362000  0.57518000  0.34980000  1.0
  C  C62  1  0.38718000  0.56442000  0.40472000  1.0
  C  C63  1  0.35801000  0.46019000  0.43671000  1.0
  C  C64  1  0.44230000  0.45030000  0.48998000  1.0
  C  C65  1  0.50290000  0.66370000  0.42484000  1.0
  C  C66  1  0.41380000  0.34280000  0.52377000  1.0
  C  C67  1  0.03786000  0.48414000  0.18935000  1.0
  C  C68  1  0.02572000  0.47168000  0.11758000  1.0
  C  C69  1  0.00005000  0.34935000  0.08198000  1.0
  C  C70  1  0.03223000  0.57477000  0.08644000  1.0
  C  C71  1  0.01243000  0.56137000  0.01776000  1.0
  C  C72  1  0.98330000  0.33390000  0.01627000  1.0
  O  O1  1  0.66175000  0.04285000  0.86783000  1.0
  O  O2  1  0.81879000  0.14467000  0.81509000  1.0
  O  O3  1  0.48955000  0.18793000  0.83913000  1.0
  O  O4  1  0.67005000  0.32733000  0.82011000  1.0
  O  O5  1  0.38707000  0.99443000  0.71549000  1.0
  O  O6  1  0.59367000  0.08395000  0.72367000  1.0
  O  O7  1  0.95715000  0.33825000  0.63217000  1.0
  O  O8  1  0.85533000  0.18121000  0.68491000  1.0
  O  O9  1  0.81207000  0.51045000  0.66087000  1.0
  O  O10  1  0.67267000  0.32995000  0.67989000  1.0
  O  O11  1  0.00557000  0.61293000  0.78451000  1.0
  O  O12  1  0.91605000  0.40633000  0.77633000  1.0
  O  O13  1  0.33825000  0.95715000  0.13217000  1.0
  O  O14  1  0.18121000  0.85533000  0.18491000  1.0
  O  O15  1  0.51045000  0.81207000  0.16087000  1.0
  O  O16  1  0.32995000  0.67267000  0.17989000  1.0
  O  O17  1  0.61293000  0.00557000  0.28451000  1.0
  O  O18  1  0.40633000  0.91605000  0.27633000  1.0
  O  O19  1  0.04285000  0.66175000  0.36783000  1.0
  O  O20  1  0.14467000  0.81879000  0.31509000  1.0
  O  O21  1  0.18793000  0.48955000  0.33913000  1.0
  O  O22  1  0.32733000  0.67005000  0.32011000  1.0
  O  O23  1  0.99443000  0.38707000  0.21549000  1.0
  O  O24  1  0.08395000  0.59367000  0.22367000  1.0
