# generated using pymatgen
data_Cr3H32C31NO13
_symmetry_space_group_name_H-M   'P 1'
_cell_length_a   11.26612637
_cell_length_b   11.26612125
_cell_length_c   18.69939000
_cell_angle_alpha   90.24772739
_cell_angle_beta   90.24786792
_cell_angle_gamma   60.30240335
_symmetry_Int_Tables_number   1
_chemical_formula_structural   Cr3H32C31NO13
_chemical_formula_sum   'Cr6 H64 C62 N2 O26'
_cell_volume   2061.65987526
_cell_formula_units_Z   2
loop_
 _symmetry_equiv_pos_site_id
 _symmetry_equiv_pos_as_xyz
  1  'x, y, z'
loop_
 _atom_site_type_symbol
 _atom_site_label
 _atom_site_symmetry_multiplicity
 _atom_site_fract_x
 _atom_site_fract_y
 _atom_site_fract_z
 _atom_site_occupancy
  C  C0  1  0.68348000  0.77132000  0.14592000  1
  C  C1  1  0.78419000  0.83605000  0.04347000  1
  C  C2  1  0.22873500  0.31728500  0.64618000  1
  C  C3  1  0.70790000  0.35338000  0.35417000  1
  C  C4  1  0.64662000  0.29210000  0.64583000  1
  C  C5  1  0.09955000  0.37931000  0.35615000  1
  C  C6  1  0.62069000  0.90045000  0.64385000  1
  C  C7  1  0.60715500  0.43344500  0.96438000  1
  C  C8  1  0.16395500  0.21580500  0.95653000  1
  C  C9  1  0.56655500  0.39284500  0.03562000  1
  C  C10  1  0.75243500  0.38386500  0.99386000  1
  C  C11  1  0.61613000  0.24757000  0.00614000  1
  C  C12  1  0.71003000  0.34523000  0.06412000  1
  C  C13  1  0.65477000  0.28997000  0.93588000  1
  C  C14  1  0.28277500  0.48858500  0.96420500  1
  C  C15  1  0.51142000  0.71722000  0.03579000  1
  C  C16  1  0.12950000  0.22940000  0.03685000  1
  C  C17  1  0.77059000  0.87051000  0.96315000  1
  C  C18  1  0.29260000  0.35322000  0.97516000  1
  C  C19  1  0.64678000  0.70740000  0.02484000  1
  C  C20  1  0.22868000  0.31652000  0.85408000  1
  C  C21  1  0.04474500  0.46414500  0.94306000  1
  C  C22  1  0.53585500  0.95525500  0.05694000  1
  C  C23  1  0.18286000  0.33630000  0.92993000  1
  C  C24  1  0.66370000  0.81714000  0.07007000  1
  C  C25  1  0.13378500  0.35470500  0.06797000  1
  C  C26  1  0.64529500  0.86621500  0.93204000  1
  C  C27  1  0.27755000  0.33395000  0.05565000  1
  C  C28  1  0.66605000  0.72245000  0.94435000  1
  C  C29  1  0.03018500  0.48422500  0.02533000  1
  C  C30  1  0.51577000  0.96981000  0.97467000  1
  C  C31  1  0.80335000  0.20149000  0.54021000  1
  C  C32  1  0.79851000  0.19665000  0.45979000  1
  C  C33  1  0.73885500  0.37239500  0.13768000  1
  C  C34  1  0.62760000  0.26114000  0.86232000  1
  C  C35  1  0.54457000  0.32067000  0.52654000  1
  C  C36  1  0.76009500  0.20020500  0.03539000  1
  C  C37  1  0.67933000  0.45543000  0.47346000  1
  C  C38  1  0.65543000  0.45285000  0.55463000  1
  C  C39  1  0.54715000  0.34457000  0.44537000  1
  C  C40  1  0.66327000  0.31759000  0.56948000  1
  C  C41  1  0.68240500  0.33672500  0.43052000  1
  C  C42  1  0.79979500  0.23990500  0.96461000  1
  C  C43  1  0.16062000  0.47552000  0.54151000  1
  C  C44  1  0.52448000  0.83938000  0.45849500  1
  C  C45  1  0.16791000  0.47111000  0.46105000  1
  C  C46  1  0.52889000  0.83209000  0.53895000  1
  C  C47  1  0.29871000  0.21663000  0.52704000  1
  C  C48  1  0.78337000  0.70129000  0.47296500  1
  C  C49  1  0.05776000  0.32576000  0.55650000  1
  C  C50  1  0.67424500  0.94223500  0.44350000  1
  C  C51  1  0.18497000  0.33479000  0.57043000  1
  C  C52  1  0.66521000  0.81503000  0.42957000  1
  C  C53  1  0.14251500  0.35468500  0.43217000  1
  C  C54  1  0.64531000  0.85749000  0.56783000  1
  C  C55  1  0.26926500  0.21930500  0.44632000  1
  C  C56  1  0.78070000  0.73074000  0.55369000  1
  C  C57  1  0.09530000  0.37984000  0.14502000  1
  C  C58  1  0.62016000  0.90470000  0.85498000  1
  C  C59  1  0.02788000  0.35188000  0.47581000  1
  C  C60  1  0.64812000  0.97212000  0.52419000  1
  C  C61  1  0.68272000  0.77126000  0.35382000  1
  Cr  Cr62  1  0.93434000  0.60642000  0.25089000  1
  Cr  Cr63  1  0.70943000  0.06261000  0.74921000  1
  Cr  Cr64  1  0.93739000  0.29057000  0.25079000  1
  Cr  Cr65  1  0.39358000  0.06566000  0.74911000  1
  Cr  Cr66  1  0.62169000  0.60305000  0.24927000  1
  Cr  Cr67  1  0.39695000  0.37831000  0.75073000  1
  H  H68  1  0.81816500  0.42751500  0.98412000  1
  H  H69  1  0.54999500  0.03711500  0.08115000  1
  H  H70  1  0.88296000  0.67694000  0.45056000  1
  H  H71  1  0.24932500  0.13496500  0.43182000  1
  H  H72  1  0.86504000  0.75068000  0.56818000  1
  H  H73  1  0.25399000  0.11813000  0.94569000  1
  H  H74  1  0.88187000  0.74601000  0.05431000  1
  H  H75  1  0.08096000  0.21296000  0.92561000  1
  H  H76  1  0.96288500  0.45000500  0.91885000  1
  H  H77  1  0.78704000  0.91904000  0.07439000  1
  H  H78  1  0.02636000  0.24148000  0.04428000  1
  H  H79  1  0.75851000  0.97365000  0.95572000  1
  H  H80  1  0.20340500  0.13464500  0.06529000  1
  H  H81  1  0.86535000  0.79661000  0.93471000  1
  H  H82  1  0.39301000  0.28021000  0.95517000  1
  H  H83  1  0.71979000  0.60699000  0.04483000  1
  H  H84  1  0.35475000  0.23043000  0.07284000  1
  H  H85  1  0.76957000  0.64525000  0.92716000  1
  H  H86  1  0.92669000  0.51667000  0.04278000  1
  H  H87  1  0.48332500  0.07331500  0.95722000  1
  H  H88  1  0.05523000  0.56489000  0.03894000  1
  H  H89  1  0.43511500  0.94476500  0.96106000  1
  H  H90  1  0.57248500  0.18183500  0.01588000  1
  H  H91  1  0.29483000  0.40609000  0.08904000  1
  H  H92  1  0.59392000  0.70516000  0.91096000  1
  H  H93  1  0.83701000  0.09719000  0.55967000  1
  H  H94  1  0.90281000  0.16299000  0.44033000  1
  H  H95  1  0.88485000  0.22247000  0.55748000  1
  H  H96  1  0.77753000  0.11515000  0.44252000  1
  H  H97  1  0.56371500  0.21962500  0.53378000  1
  H  H98  1  0.78038000  0.43628000  0.46622000  1
  H  H99  1  0.53587000  0.26699000  0.41383000  1
  H  H100  1  0.73300500  0.46413500  0.58617000  1
  H  H101  1  0.54405500  0.52732500  0.93290000  1
  H  H102  1  0.47267500  0.45594500  0.06710000  1
  H  H103  1  0.55245500  0.53693500  0.56971000  1
  H  H104  1  0.46307000  0.44755000  0.43029000  1
  H  H105  1  0.60353500  0.55447500  0.45101000  1
  H  H106  1  0.03777000  0.55599000  0.91712500  1
  H  H107  1  0.44552000  0.39646000  0.54899000  1
  H  H108  1  0.23222000  0.50894000  0.56069000  1
  H  H109  1  0.49106500  0.76777500  0.43931000  1
  H  H110  1  0.05908000  0.55672000  0.55926000  1
  H  H111  1  0.44328000  0.94092000  0.44074000  1
  H  H112  1  0.44401000  0.96223000  0.08288000  1
  H  H113  1  0.09681000  0.57529000  0.44183000  1
  H  H114  1  0.42471000  0.90319000  0.55817000  1
  H  H115  1  0.26951000  0.45073000  0.44327000  1
  H  H116  1  0.54927000  0.73049000  0.55674000  1
  H  H117  1  0.38051000  0.23647000  0.53329000  1
  H  H118  1  0.76353000  0.61949000  0.46671500  1
  H  H119  1  0.35688000  0.20808000  0.41410000  1
  H  H120  1  0.79192500  0.64312500  0.58591000  1
  H  H121  1  0.07734500  0.22198500  0.57095000  1
  H  H122  1  0.77802500  0.92264500  0.42905000  1
  H  H123  1  0.97074500  0.40199500  0.58900500  1
  H  H124  1  0.59801000  0.02925000  0.41099000  1
  H  H125  1  0.82530000  0.10376000  0.06459000  1
  H  H126  1  0.89623500  0.17469500  0.93541000  1
  H  H127  1  0.94719000  0.45381000  0.47065500  1
  H  H128  1  0.54619000  0.05281000  0.52934000  1
  H  H129  1  0.00187000  0.27755000  0.45319000  1
  H  H130  1  0.72245000  0.99813000  0.54681000  1
  H  H131  1  0.32305500  0.11704500  0.54945000  1
  N  N132  1  0.27305500  0.59463500  0.95527000  1
  N  N133  1  0.40536500  0.72693500  0.04473000  1
  O  O134  1  0.07730000  0.49444000  0.17011000  1
  O  O135  1  0.73987000  0.17447000  0.66838000  1
  O  O136  1  0.82553000  0.26013000  0.33162000  1
  O  O137  1  0.05424000  0.30402000  0.32687000  1
  O  O138  1  0.69598000  0.94576000  0.67313000  1
  O  O139  1  0.83114000  0.50000000  0.25032000  1
  O  O140  1  0.50000000  0.16886000  0.74968000  1
  O  O141  1  0.50556000  0.92270000  0.82989000  1
  O  O142  1  0.80480000  0.72310000  0.17473000  1
  O  O143  1  0.27690000  0.19520000  0.82527000  1
  O  O144  1  0.59125000  0.74455000  0.16769000  1
  O  O145  1  0.25545000  0.40875000  0.83231000  1
  O  O146  1  0.63488000  0.47212000  0.17376000  1
  O  O147  1  0.52788000  0.36512000  0.82624000  1
  O  O148  1  0.82686000  0.25852000  0.16872000  1
  O  O149  1  0.74148000  0.17314000  0.83128000  1
  O  O150  1  0.05548000  0.30252000  0.17587000  1
  O  O151  1  0.69748000  0.94452000  0.82413000  1
  O  O152  1  0.07597000  0.49605000  0.33300000  1
  O  O153  1  0.50395000  0.92403000  0.66700000  1
  O  O154  1  0.80356000  0.72460000  0.32574000  1
  O  O155  1  0.27540000  0.19644000  0.67426000  1
  O  O156  1  0.58992000  0.74616000  0.33059000  1
  O  O157  1  0.63365000  0.47363000  0.32477000  1
  O  O158  1  0.25384000  0.41008000  0.66941000  1
  O  O159  1  0.52637000  0.36635000  0.67523000  1
