# generated using pymatgen
data_H10C11
_symmetry_space_group_name_H-M   'P 1'
_cell_length_a   29.26640000
_cell_length_b   29.26640000
_cell_length_c   29.26640000
_cell_angle_alpha   90.00000000
_cell_angle_beta   90.00000000
_cell_angle_gamma   90.00000000
_symmetry_Int_Tables_number   1
_chemical_formula_structural   H10C11
_chemical_formula_sum   'H240 C264'
_cell_volume   25067.32040565
_cell_formula_units_Z   24
loop_
 _symmetry_equiv_pos_site_id
 _symmetry_equiv_pos_as_xyz
  1  'x, y, z'
loop_
 _atom_site_type_symbol
 _atom_site_label
 _atom_site_symmetry_multiplicity
 _atom_site_fract_x
 _atom_site_fract_y
 _atom_site_fract_z
 _atom_site_occupancy
  H  5  1  0.09774900  0.02425500  0.32587500  1
  H  6  1  0.14481200  0.05398400  0.30509700  1
  H  9  1  0.20484800  0.01759400  0.26108700  1
  H  10  1  0.20505600  0.95909400  0.24924100  1
  H  11  1  0.14792700  0.06321300  0.23110200  1
  H  12  1  0.10511100  0.02820100  0.18532000  1
  H  15  1  0.14832400  0.92419000  0.19691300  1
  H  16  1  0.10502500  0.95569400  0.17119200  1
  H  18  1  0.14433900  0.91737300  0.27000200  1
  H  19  1  0.09709000  0.95098500  0.31265900  1
  H  21  1  0.04385900  0.99349300  0.21581800  1
  H  22  1  0.04091900  0.99114200  0.27486900  1
  H  27  1  0.36787900  0.95165800  0.82419800  1
  H  28  1  0.32230000  0.91932100  0.80421600  1
  H  31  1  0.26088300  0.95112900  0.75808100  1
  H  32  1  0.25812900  0.00923300  0.74447200  1
  H  33  1  0.32009900  0.90783300  0.73082100  1
  H  34  1  0.36210500  0.94225500  0.68324500  1
  H  37  1  0.31224500  0.04476200  0.69216600  1
  H  38  1  0.35717100  0.01496000  0.66716100  1
  H  40  1  0.31605300  0.05603500  0.76562900  1
  H  41  1  0.36595200  0.02370100  0.80648800  1
  H  43  1  0.42032900  0.98447400  0.71308100  1
  H  44  1  0.42355100  0.98619300  0.77159900  1
  H  49  1  0.89759000  0.56442600  0.14953700  1
  H  50  1  0.85709600  0.58940000  0.18489300  1
  H  53  1  0.80016400  0.54309100  0.22678900  1
  H  54  1  0.79709500  0.48424500  0.22312700  1
  H  55  1  0.86467100  0.57236300  0.25605800  1
  H  56  1  0.91309200  0.52804600  0.28514900  1
  H  59  1  0.86072100  0.43278700  0.25232600  1
  H  60  1  0.90949400  0.45504100  0.27767300  1
  H  62  1  0.84998200  0.45153500  0.18198600  1
  H  63  1  0.89490700  0.49045700  0.14157000  1
  H  65  1  0.96488200  0.50286700  0.23535700  1
  H  66  1  0.95775400  0.51561500  0.17761800  1
  H  71  1  0.55449600  0.42898700  0.65860200  1
  H  72  1  0.59645900  0.40029900  0.68911800  1
  H  75  1  0.65902900  0.44314000  0.72979000  1
  H  76  1  0.66336200  0.50185200  0.72983400  1
  H  77  1  0.59537600  0.41477300  0.76128600  1
  H  78  1  0.55111400  0.45776800  0.79794300  1
  H  81  1  0.60355300  0.55389500  0.76310400  1
  H  82  1  0.55590700  0.53184900  0.79057900  1
  H  84  1  0.60948100  0.53780800  0.69151000  1
  H  85  1  0.55864100  0.50354400  0.65389000  1
  H  87  1  0.49766700  0.48893600  0.75221800  1
  H  88  1  0.49883500  0.47759600  0.69392200  1
  H  93  1  0.33723800  0.10643500  0.03754100  1
  H  94  1  0.31182900  0.14477000  0.07496400  1
  H  97  1  0.26128300  0.20534300  0.04980500  1
  H  98  1  0.24817700  0.21480400  0.99250300  1
  H  99  1  0.23812400  0.14014600  0.08283900  1
  H  100  1  0.19958700  0.09635700  0.04077300  1
  H  103  1  0.20136700  0.16089700  0.94804700  1
  H  104  1  0.18058300  0.11026100  0.97087800  1
  H  106  1  0.27414000  0.16637500  0.93944000  1
  H  107  1  0.32014800  0.11854800  0.96695600  1
  H  109  1  0.23294900  0.04684800  0.99663200  1
  H  110  1  0.29168100  0.05099600  0.99331400  1
  H  115  1  0.80620800  0.39343100  0.91771800  1
  H  116  1  0.77592400  0.34638000  0.89777100  1
  H  119  1  0.74230900  0.29026300  0.95024700  1
  H  120  1  0.74575000  0.29396300  0.00913600  1
  H  121  1  0.70323700  0.34700600  0.91250400  1
  H  122  1  0.66958400  0.39409700  0.95520900  1
  H  125  1  0.70949700  0.35588600  0.05357300  1
  H  126  1  0.67787700  0.39913700  0.02797600  1
  H  128  1  0.78157900  0.35536700  0.03824000  1
  H  129  1  0.81630500  0.39704900  0.99130500  1
  H  131  1  0.71240400  0.45503100  0.97382700  1
  H  132  1  0.77080900  0.45421700  0.96135600  1
  H  137  1  0.14993400  0.84338700  0.53670800  1
  H  138  1  0.17813000  0.80009500  0.56573800  1
  H  141  1  0.22641900  0.74526500  0.52880800  1
  H  142  1  0.23734000  0.74564100  0.47040000  1
  H  143  1  0.25274500  0.80317100  0.57103400  1
  H  144  1  0.28761500  0.85389800  0.53398500  1
  H  147  1  0.28036200  0.80508800  0.43311100  1
  H  148  1  0.30339900  0.85143100  0.46213100  1
  H  150  1  0.20603500  0.80085100  0.42724100  1
  H  151  1  0.16409000  0.84546500  0.46467000  1
  H  153  1  0.25202400  0.91057000  0.49855800  1
  H  154  1  0.19328100  0.90683600  0.49865400  1
  H  159  1  0.66965900  0.57767600  0.42374600  1
  H  160  1  0.70182600  0.62360600  0.40426200  1
  H  163  1  0.73747400  0.67800000  0.45772300  1
  H  164  1  0.73665800  0.67316100  0.51627500  1
  H  165  1  0.77443800  0.62128600  0.42012400  1
  H  166  1  0.80679600  0.57013200  0.45950300  1
  H  169  1  0.76767300  0.60887300  0.55966600  1
  H  170  1  0.79692100  0.56451500  0.53304500  1
  H  172  1  0.69461300  0.61400100  0.54570100  1
  H  173  1  0.65925500  0.57414000  0.49718800  1
  H  175  1  0.76019600  0.51173400  0.47988800  1
  H  176  1  0.70188700  0.51519200  0.46727300  1
  H  181  1  0.04977800  0.31488900  0.08748700  1
  H  182  1  0.06610000  0.29635500  0.14139700  1
  H  185  1  0.01187300  0.26441100  0.19662200  1
  H  186  1  0.95362300  0.26071700  0.18525200  1
  H  187  1  0.06052500  0.22350600  0.15487900  1
  H  188  1  0.02825200  0.17813200  0.10919300  1
  H  191  1  0.92267300  0.20810400  0.12699100  1
  H  192  1  0.95701300  0.17351200  0.09348200  1
  H  194  1  0.93108200  0.28005700  0.11485700  1
  H  195  1  0.97768100  0.31192600  0.07009700  1
  H  197  1  0.01364500  0.20455900  0.03872100  1
  H  198  1  0.01948400  0.26297700  0.02917500  1
  H  203  1  0.93777200  0.82374000  0.38250700  1
  H  204  1  0.89948600  0.78845800  0.35394900  1
  H  207  1  0.92420700  0.73518500  0.29559200  1
  H  208  1  0.98070900  0.72875400  0.27820800  1
  H  209  1  0.90566400  0.71685300  0.37218500  1
  H  210  1  0.95898100  0.68680500  0.41008500  1
  H  213  1  0.04084100  0.69735300  0.33069000  1
  H  214  1  0.02867600  0.68109900  0.38664800  1
  H  216  1  0.03374700  0.76831500  0.31377200  1
  H  217  1  0.00746200  0.81946200  0.35707500  1
  H  219  1  0.00227600  0.73691700  0.44577800  1
  H  220  1  0.99474000  0.79455000  0.43339100  1
  H  225  1  0.53520800  0.15013300  0.87244800  1
  H  226  1  0.57045700  0.18683100  0.84191800  1
  H  229  1  0.54104700  0.24295200  0.78988900  1
  H  230  1  0.48316900  0.25105200  0.77882500  1
  H  231  1  0.56822200  0.25789600  0.86378600  1
  H  232  1  0.51899500  0.28526700  0.90876600  1
  H  235  1  0.42940700  0.27997400  0.83848400  1
  H  236  1  0.44752700  0.29390600  0.89351300  1
  H  238  1  0.43368500  0.20933700  0.81727900  1
  H  239  1  0.46296800  0.15708600  0.85733500  1
  H  241  1  0.47942400  0.23460900  0.94743200  1
  H  242  1  0.48450800  0.17749100  0.93168000  1
  H  247  1  0.44499500  0.67994400  0.58535400  1
  H  248  1  0.43233600  0.69122700  0.64234500  1
  H  251  1  0.49133800  0.71813800  0.69760200  1
  H  252  1  0.54793600  0.72642700  0.68102400  1
  H  253  1  0.43800800  0.76127600  0.66597900  1
  H  254  1  0.46345700  0.81508200  0.62524000  1
  H  257  1  0.57154000  0.78598400  0.62881000  1
  H  258  1  0.53331200  0.82301600  0.60285200  1
  H  260  1  0.56698800  0.71611500  0.60521700  1
  H  261  1  0.51478900  0.68948400  0.56315800  1
  H  263  1  0.47618800  0.79767600  0.54915200  1
  H  264  1  0.47036900  0.74120900  0.53153500  1
  H  271  1  0.12264700  0.84958900  0.24552400  1
  H  272  1  0.02598400  0.93020000  0.31778800  1
  H  273  1  0.97474300  0.87219500  0.31245700  1
  H  274  1  0.07338000  0.78823200  0.25322400  1
  H  281  1  0.33758100  0.12699100  0.74704100  1
  H  282  1  0.43621400  0.04500600  0.81430600  1
  H  283  1  0.48647600  0.10267100  0.81181900  1
  H  284  1  0.38249700  0.18994000  0.76480200  1
  H  291  1  0.85689400  0.37938800  0.18776600  1
  H  292  1  0.94624600  0.45447700  0.10207900  1
  H  293  1  0.97857000  0.38666200  0.07711500  1
  H  294  1  0.88832000  0.31305000  0.16300300  1
  H  301  1  0.62133700  0.60896200  0.68734200  1
  H  302  1  0.51701000  0.54501100  0.60981600  1
  H  303  1  0.50242300  0.61376600  0.57370300  1
  H  304  1  0.60854500  0.67595300  0.64991600  1
  H  311  1  0.25581700  0.14741000  0.86562800  1
  H  312  1  0.34191100  0.05578900  0.93731400  1
  H  313  1  0.34701200  0.01075900  0.87565300  1
  H  314  1  0.27308700  0.10812200  0.79832900  1
  H  321  1  0.76646600  0.38184800  0.10552400  1
  H  322  1  0.84343500  0.46202500  0.01249300  1
  H  323  1  0.86831000  0.50634500  0.07284100  1
  H  324  1  0.78201700  0.43251000  0.16163800  1
  H  331  1  0.22528200  0.83292200  0.35768300  1
  H  332  1  0.14045700  0.91227200  0.44356400  1
  H  333  1  0.11546300  0.95336300  0.38301600  1
  H  334  1  0.19661100  0.87232900  0.29501600  1
  H  341  1  0.70998500  0.58011600  0.60937200  1
  H  342  1  0.61288100  0.52127700  0.51991400  1
  H  343  1  0.57923500  0.48469600  0.58189300  1
  H  344  1  0.68052800  0.54057900  0.66798800  1
  H  351  1  0.86733300  0.25217200  0.08573600  1
  H  352  1  0.95076000  0.33873100  0.00631800  1
  H  353  1  0.88678500  0.37694400  0.98061700  1
  H  354  1  0.80426100  0.28932400  0.06031800  1
  H  361  1  0.11023500  0.75664600  0.32327300  1
  H  362  1  0.04414700  0.85170100  0.41029000  1
  H  363  1  0.09318400  0.83296300  0.46658000  1
  H  364  1  0.17480100  0.76188100  0.37076000  1
  H  371  1  0.35939200  0.22550500  0.83719600  1
  H  372  1  0.43055500  0.12415800  0.91305400  1
  H  373  1  0.38867500  0.14334300  0.97469500  1
  H  374  1  0.29910300  0.21784900  0.89020600  1
  H  381  1  0.62445000  0.73978700  0.56382100  1
  H  382  1  0.53164100  0.65100300  0.50047900  1
  H  383  1  0.59019600  0.60080900  0.48343900  1
  H  384  1  0.67891500  0.68539000  0.56010700  1
  H  391  1  0.60218900  0.37077400  0.97957800  1
  H  392  1  0.68277700  0.27632300  0.90462200  1
  H  393  1  0.62352800  0.22621000  0.90483300  1
  H  394  1  0.54046000  0.32247300  0.96980200  1
  H  401  1  0.87798700  0.58982000  0.47822100  1
  H  402  1  0.79645300  0.69180400  0.41539800  1
  H  403  1  0.85421600  0.74174200  0.42113200  1
  H  404  1  0.94091600  0.63565400  0.46340500  1
  H  411  1  0.12701000  0.10196000  0.03708100  1
  H  412  1  0.20274200  0.19055100  0.12318900  1
  H  413  1  0.13541900  0.22398400  0.14743300  1
  H  414  1  0.06082700  0.13436500  0.06159900  1
  H  421  1  0.35907400  0.86386800  0.53692700  1
  H  422  1  0.29417500  0.75995000  0.61416900  1
  H  423  1  0.36249400  0.74640600  0.65204800  1
  H  424  1  0.42411800  0.85445500  0.57816200  1
  H  431  1  0.89314100  0.50683800  0.35762900  1
  H  432  1  0.80039300  0.59145700  0.28578600  1
  H  433  1  0.76065100  0.60427000  0.35034100  1
  H  434  1  0.85663800  0.52644400  0.42549800  1
  H  441  1  0.12951800  0.01306500  0.11720800  1
  H  442  1  0.21413400  0.08651100  0.20916900  1
  H  443  1  0.25867100  0.10942600  0.14849500  1
  H  444  1  0.17944100  0.02814100  0.05992100  1
  H  451  1  0.58388500  0.47473600  0.86815000  1
  H  452  1  0.66007500  0.38717100  0.78209900  1
  H  453  1  0.70263200  0.36323900  0.84182900  1
  H  454  1  0.62450800  0.44665600  0.93046300  1
  H  461  1  0.33170300  0.95531100  0.61757200  1
  H  462  1  0.26953700  0.85962500  0.70626100  1
  H  463  1  0.23569100  0.82446500  0.64348600  1
  H  464  1  0.29558100  0.92400600  0.55775600  1
  H  471  1  0.00108300  0.11519900  0.13992800  1
  H  472  1  0.08912100  0.19770800  0.21855100  1
  H  473  1  0.12797000  0.13349100  0.24273600  1
  H  474  1  0.03946000  0.05178800  0.16315300  1
  H  481  1  0.50763400  0.36129500  0.90159400  1
  H  482  1  0.59685500  0.29496700  0.80859300  1
  H  483  1  0.57565400  0.34521200  0.75426800  1
  H  484  1  0.51223300  0.42668400  0.85516500  1
  H  491  1  0.97219700  0.61192100  0.38858600  1
  H  492  1  0.86743900  0.68501800  0.31987800  1
  H  493  1  0.88058000  0.64289100  0.25677400  1
  H  494  1  0.96337500  0.55340300  0.33423900  1
  H  501  1  0.48749400  0.87043600  0.66951900  1
  H  502  1  0.39345100  0.77780000  0.72520100  1
  H  503  1  0.34479200  0.83744900  0.74356000  1
  H  504  1  0.43415300  0.92575200  0.67208200  1
  C  1  1  0.09773200  0.03023500  0.25227700  1
  C  2  1  0.12676200  0.04228200  0.21009100  1
  C  3  1  0.12195000  0.02541500  0.29741300  1
  C  4  1  0.14792400  0.98141300  0.29088400  1
  C  7  1  0.18252800  0.98855200  0.25382900  1
  C  8  1  0.15270500  0.99611600  0.21287500  1
  C  13  1  0.12594700  0.95368800  0.20207100  1
  C  14  1  0.09654700  0.95113600  0.24386800  1
  C  17  1  0.12003300  0.93636800  0.28872300  1
  C  20  1  0.06493000  0.99151300  0.24646800  1
  C  23  1  0.36888100  0.94379600  0.75119600  1
  C  24  1  0.34134100  0.92825600  0.70934600  1
  C  25  1  0.34383800  0.94869600  0.79578000  1
  C  26  1  0.31577400  0.99109800  0.78726200  1
  C  29  1  0.28192600  0.98097200  0.75013000  1
  C  30  1  0.31221500  0.97283000  0.70958500  1
  C  35  1  0.33624600  0.01670700  0.69804300  1
  C  36  1  0.36562100  0.02286600  0.73937700  1
  C  39  1  0.34195200  0.03759300  0.78387600  1
  C  42  1  0.39928700  0.98444000  0.74358700  1
  C  45  1  0.90904600  0.54958600  0.22176900  1
  C  46  1  0.88648500  0.54805500  0.27024200  1
  C  47  1  0.87812700  0.55873000  0.18095300  1
  C  48  1  0.84887800  0.51634000  0.17965900  1
  C  51  1  0.82122900  0.51269700  0.22279500  1
  C  52  1  0.85768400  0.50568900  0.25879100  1
  C  57  1  0.88374100  0.46217900  0.25153000  1
  C  58  1  0.90532500  0.47114800  0.20554600  1
  C  61  1  0.87244100  0.47205000  0.16382300  1
  C  64  1  0.93892400  0.50977600  0.20938600  1
  C  67  1  0.54981500  0.44005800  0.73241400  1
  C  68  1  0.57611500  0.43832500  0.77917400  1
  C  69  1  0.57666200  0.43199400  0.68857800  1
  C  70  1  0.60804200  0.47281900  0.68730100  1
  C  73  1  0.63856200  0.47415200  0.72874700  1
  C  74  1  0.60500100  0.48041800  0.76724900  1
  C  79  1  0.57974400  0.52508400  0.76257100  1
  C  80  1  0.55547000  0.51955900  0.71708200  1
  C  83  1  0.58607900  0.51835200  0.67314100  1
  C  86  1  0.52090500  0.48182600  0.72380700  1
  C  89  1  0.26444200  0.09671500  0.04270100  1
  C  90  1  0.21990400  0.11847500  0.05978400  1
  C  91  1  0.30625100  0.12672800  0.04269200  1
  C  92  1  0.29624500  0.15947200  0.00357000  1
  C  95  1  0.25571800  0.18783900  0.01724700  1
  C  96  1  0.21781300  0.15318800  0.01978000  1
  C  101  1  0.20935900  0.13400300  0.97275800  1
  C  102  1  0.25358000  0.10961800  0.96399000  1
  C  105  1  0.29506200  0.14006900  0.95390700  1
  C  108  1  0.26103100  0.07142100  0.99809200  1
  C  111  1  0.73367100  0.39724100  0.93259600  1
  C  112  1  0.68841100  0.36975200  0.93625900  1
  C  113  1  0.77753000  0.37089300  0.92594600  1
  C  114  1  0.78239600  0.34697100  0.97118900  1
  C  117  1  0.74346100  0.31466500  0.97827600  1
  C  118  1  0.70332200  0.34665400  0.98118400  1
  C  123  1  0.70709100  0.37646900  0.02249800  1
  C  124  1  0.74940600  0.40292600  0.01030400  1
  C  127  1  0.79541800  0.37645600  0.01288900  1
  C  130  1  0.74163200  0.43223300  0.96913200  1
  C  133  1  0.22270000  0.85395600  0.53911300  1
  C  134  1  0.26799600  0.83068000  0.55210800  1
  C  135  1  0.18143300  0.82325500  0.53655800  1
  C  136  1  0.18927100  0.79775800  0.49185800  1
  C  139  1  0.23067100  0.76811300  0.49951900  1
  C  140  1  0.26881100  0.80212200  0.50662900  1
  C  145  1  0.27430600  0.82796700  0.46205600  1
  C  146  1  0.22995500  0.85390800  0.45902500  1
  C  149  1  0.18729100  0.82613600  0.44620800  1
  C  152  1  0.22411300  0.88603400  0.49884500  1
  C  155  1  0.74188200  0.57063100  0.43889300  1
  C  156  1  0.78836500  0.59653400  0.44212200  1
  C  157  1  0.69930400  0.59887500  0.43212700  1
  C  158  1  0.69561000  0.62289900  0.47746900  1
  C  161  1  0.73618600  0.65302900  0.48514000  1
  C  162  1  0.77447600  0.61913400  0.48747100  1
  C  167  1  0.76887500  0.58875400  0.52822400  1
  C  168  1  0.72482500  0.56508500  0.51658200  1
  C  171  1  0.68046300  0.59429600  0.51884100  1
  C  174  1  0.73201100  0.53583300  0.47525200  1
  C  177  1  0.04439900  0.24162300  0.09557500  1
  C  178  1  0.04325500  0.20205700  0.13092800  1
  C  179  1  0.04169000  0.28967000  0.11388300  1
  C  180  1  0.99310400  0.29248500  0.13067600  1
  C  183  1  0.98722800  0.25856100  0.16912900  1
  C  184  1  0.99381900  0.21322800  0.14587800  1
  C  189  1  0.95629500  0.20666400  0.11075400  1
  C  190  1  0.96591000  0.24518900  0.07725200  1
  C  193  1  0.95542700  0.29441100  0.09334700  1
  C  196  1  0.01188700  0.23776800  0.05570600  1
  C  199  1  0.94560700  0.75203000  0.40051100  1
  C  200  1  0.93485400  0.70179500  0.38709600  1
  C  201  1  0.93454000  0.78990600  0.36689900  1
  C  202  1  0.96884500  0.78108700  0.32925900  1
  C  205  1  0.95930200  0.73607300  0.30795400  1
  C  206  1  0.96963100  0.70419700  0.34714600  1
  C  211  1  0.01887000  0.70523900  0.35987700  1
  C  212  1  0.02123000  0.75335200  0.37634000  1
  C  215  1  0.01997900  0.79088400  0.33875000  1
  C  218  1  0.99253600  0.76050700  0.41848400  1
  C  221  1  0.52996000  0.22042200  0.89533400  1
  C  222  1  0.54062000  0.27077900  0.88349500  1
  C  223  1  0.53699200  0.18477100  0.85847600  1
  C  224  1  0.49855200  0.19574200  0.82545900  1
  C  227  1  0.50736400  0.24176300  0.80574000  1
  C  228  1  0.50181800  0.27175700  0.84720400  1
  C  233  1  0.45414600  0.27077700  0.86492400  1
  C  234  1  0.45284400  0.22209300  0.87965100  1
  C  237  1  0.44868200  0.18596900  0.84099900  1
  C  240  1  0.48553000  0.21216000  0.91818700  1
  C  243  1  0.45028800  0.75131300  0.60194000  1
  C  244  1  0.45037000  0.78593600  0.64201300  1
  C  245  1  0.45436100  0.70189400  0.61410700  1
  C  246  1  0.50377900  0.69978900  0.62718400  1
  C  249  1  0.51273200  0.72862800  0.66881900  1
  C  250  1  0.50172900  0.77565100  0.65202800  1
  C  255  1  0.53663600  0.78798300  0.61552900  1
  C  256  1  0.52675100  0.75320900  0.57820600  1
  C  259  1  0.53879900  0.70224900  0.58737700  1
  C  262  1  0.47950600  0.76243100  0.56090600  1
  C  265  1  0.00464800  0.86715500  0.29507700  1
  C  266  1  0.03697100  0.90151900  0.30114900  1
  C  267  1  0.08355700  0.89750400  0.28520500  1
  C  268  1  0.09194600  0.85551400  0.26118000  1
  C  269  1  0.06047800  0.81955100  0.26184200  1
  C  270  1  0.02519500  0.82291000  0.29594100  1
  C  275  1  0.45597700  0.10952800  0.79605700  1
  C  276  1  0.42466100  0.07394800  0.79859500  1
  C  277  1  0.37802400  0.07739700  0.78256300  1
  C  278  1  0.36844000  0.12082100  0.76221600  1
  C  279  1  0.39693000  0.15855900  0.77019800  1
  C  280  1  0.43577000  0.15366000  0.80011600  1
  C  285  1  0.95317600  0.38402400  0.10098700  1
  C  286  1  0.93347400  0.42503000  0.11595400  1
  C  287  1  0.89667400  0.42685200  0.14820800  1
  C  288  1  0.88293100  0.38272600  0.16462500  1
  C  289  1  0.90228400  0.34228400  0.14971300  1
  C  290  1  0.93752300  0.34007500  0.11550200  1
  C  295  1  0.52840100  0.61338000  0.59708400  1
  C  296  1  0.53630800  0.57228800  0.62013800  1
  C  297  1  0.57110900  0.56668400  0.65424600  1
  C  298  1  0.59520900  0.60845900  0.66404500  1
  C  299  1  0.58834700  0.64897000  0.64049300  1
  C  300  1  0.55216600  0.65474100  0.60807000  1
  C  305  1  0.32673400  0.03893900  0.87167200  1
  C  306  1  0.32366500  0.06661900  0.90953200  1
  C  307  1  0.29829100  0.10860500  0.91057000  1
  C  308  1  0.27608900  0.11906400  0.86830000  1
  C  309  1  0.28556200  0.09468100  0.82808700  1
  C  310  1  0.31625400  0.05627400  0.82712300  1
  C  315  1  0.84327800  0.48298400  0.07995400  1
  C  316  1  0.83059800  0.45413200  0.04405400  1
  C  317  1  0.80583200  0.41226800  0.05132600  1
  C  318  1  0.78721000  0.40859500  0.09672000  1
  C  319  1  0.79420100  0.44152000  0.13010500  1
  C  320  1  0.83516600  0.46822300  0.12568300  1
  C  325  1  0.13911200  0.92859400  0.37577200  1
  C  326  1  0.15577000  0.90458700  0.41312200  1
  C  327  1  0.18394200  0.86452400  0.40857500  1
  C  328  1  0.20313400  0.85921800  0.36405600  1
  C  329  1  0.18490100  0.88252500  0.32636800  1
  C  330  1  0.14810900  0.91531600  0.32962600  1
  C  335  1  0.60909100  0.50190000  0.58785200  1
  C  336  1  0.62818500  0.52595200  0.55100400  1
  C  337  1  0.66254200  0.56072500  0.55681600  1
  C  338  1  0.68309400  0.55923200  0.60138300  1
  C  339  1  0.66684400  0.53269000  0.63694600  1
  C  340  1  0.62170300  0.51382200  0.63345400  1
  C  345  1  0.88118200  0.35019000  0.00242600  1
  C  346  1  0.91993600  0.32575600  0.01653300  1
  C  347  1  0.91735600  0.29620600  0.05557200  1
  C  348  1  0.87297400  0.27650000  0.06127600  1
  C  349  1  0.83451700  0.30030400  0.04669700  1
  C  350  1  0.83681700  0.34294000  0.02180300  1
  C  355  1  0.09881100  0.81628800  0.43631600  1
  C  356  1  0.07107200  0.83149300  0.40079100  1
  C  357  1  0.06717100  0.80211500  0.36165000  1
  C  358  1  0.10846200  0.77762300  0.35115000  1
  C  359  1  0.14511600  0.77650900  0.38206300  1
  C  360  1  0.14420200  0.80252100  0.42387200  1
  C  365  1  0.38069600  0.16138800  0.94578500  1
  C  366  1  0.40352100  0.14555500  0.90716400  1
  C  367  1  0.40416300  0.17642100  0.86886700  1
  C  368  1  0.36316400  0.20309400  0.86372500  1
  C  369  1  0.32987200  0.20319600  0.89808200  1
  C  370  1  0.33406000  0.17231900  0.93622400  1
  C  375  1  0.59861900  0.62931200  0.50183500  1
  C  376  1  0.56385900  0.66179700  0.50880200  1
  C  377  1  0.57023100  0.69564500  0.54402400  1
  C  378  1  0.61609300  0.71188200  0.54434100  1
  C  379  1  0.64930500  0.67767500  0.54338500  1
  C  380  1  0.64258400  0.63285600  0.52327300  1
  C  385  1  0.61865500  0.25514500  0.92384200  1
  C  386  1  0.65392800  0.28686900  0.92127200  1
  C  387  1  0.64986900  0.33294200  0.93851700  1
  C  388  1  0.60791600  0.34068900  0.96268500  1
  C  389  1  0.57160800  0.30979200  0.96026200  1
  C  390  1  0.57456000  0.27599900  0.92464800  1
  C  395  1  0.86086800  0.71057300  0.43561900  1
  C  396  1  0.82532900  0.67940400  0.43059000  1
  C  397  1  0.82857200  0.63203600  0.44444200  1
  C  398  1  0.87192500  0.62137800  0.46450200  1
  C  399  1  0.90960000  0.65054800  0.45895300  1
  C  400  1  0.90468000  0.69007500  0.42996400  1
  C  405  1  0.13254400  0.19842800  0.12375300  1
  C  406  1  0.17320400  0.17790800  0.10936800  1
  C  407  1  0.17463400  0.14132900  0.07683300  1
  C  408  1  0.13045700  0.12771400  0.06052400  1
  C  409  1  0.09023100  0.14784400  0.07500600  1
  C  410  1  0.08849300  0.18338700  0.10889500  1
  C  415  1  0.36213900  0.77241500  0.62871100  1
  C  416  1  0.32152100  0.77942000  0.60436900  1
  C  417  1  0.31622300  0.81429300  0.57027200  1
  C  418  1  0.35822000  0.83805700  0.56056800  1
  C  419  1  0.39747300  0.83339000  0.58660500  1
  C  420  1  0.40310800  0.79766900  0.61958500  1
  C  425  1  0.78794200  0.58268200  0.35369900  1
  C  426  1  0.81188400  0.57428300  0.31396100  1
  C  427  1  0.85386000  0.54897800  0.31282800  1
  C  428  1  0.86490400  0.52731500  0.35523000  1
  C  429  1  0.84269000  0.53907200  0.39603500  1
  C  430  1  0.80594200  0.57165600  0.39790700  1
  C  435  1  0.23418400  0.08545100  0.14150600  1
  C  436  1  0.20513000  0.07426300  0.17767200  1
  C  437  1  0.16208300  0.05143800  0.17092500  1
  C  438  1  0.15711000  0.03287500  0.12558400  1
  C  439  1  0.18956800  0.03928400  0.09151900  1
  C  440  1  0.21734500  0.07947500  0.09619000  1
  C  445  1  0.67830400  0.38726700  0.84932600  1
  C  446  1  0.65316600  0.40305300  0.81245800  1
  C  447  1  0.61394000  0.43241400  0.81713200  1
  C  448  1  0.60952900  0.45188000  0.86162700  1
  C  449  1  0.63381300  0.43434800  0.89906200  1
  C  450  1  0.66659100  0.39756500  0.89559800  1
  C  455  1  0.25345800  0.85400000  0.63759800  1
  C  456  1  0.27560700  0.87418700  0.67506100  1
  C  457  1  0.31000400  0.90903600  0.67018200  1
  C  458  1  0.31068200  0.92840700  0.62515400  1
  C  459  1  0.28635000  0.91086100  0.58867500  1
  C  460  1  0.26593400  0.86633900  0.59207200  1
  C  465  1  0.10100900  0.12812300  0.22112400  1
  C  466  1  0.07603900  0.16696000  0.20825300  1
  C  467  1  0.04599400  0.16478500  0.16950900  1
  C  468  1  0.02608500  0.12051400  0.16383500  1
  C  469  1  0.05069600  0.08194300  0.17682200  1
  C  470  1  0.09361200  0.08397700  0.20125400  1
  C  475  1  0.56066700  0.35049800  0.78544700  1
  C  476  1  0.57762500  0.32202000  0.81959600  1
  C  477  1  0.55061800  0.31810600  0.86042400  1
  C  478  1  0.52698000  0.35950100  0.87256100  1
  C  479  1  0.52512500  0.39677300  0.84244400  1
  C  480  1  0.55002700  0.39605900  0.80000700  1
  C  485  1  0.90071300  0.63462900  0.28420400  1
  C  486  1  0.88873600  0.65757700  0.32406100  1
  C  487  1  0.92213700  0.65749500  0.36008900  1
  C  488  1  0.94821400  0.61600700  0.36351300  1
  C  489  1  0.94720600  0.58383400  0.32819700  1
  C  490  1  0.91510800  0.58842900  0.29109200  1
  C  495  1  0.37413900  0.84562900  0.72644800  1
  C  496  1  0.40541700  0.80997000  0.71852700  1
  C  497  1  0.44123000  0.81667400  0.68538000  1
  C  498  1  0.45856400  0.86211500  0.68745400  1
  C  499  1  0.42520100  0.89612400  0.68808000  1
  C  500  1  0.37955200  0.88998700  0.70635700  1
