# generated using pymatgen
data_AlH7C12O5
_symmetry_space_group_name_H-M   'P 1'
_cell_length_a   6.67478000
_cell_length_b   16.28877000
_cell_length_c   19.90377000
_cell_angle_alpha   89.97232000
_cell_angle_beta   89.91905000
_cell_angle_gamma   90.02717000
_symmetry_Int_Tables_number   1
_chemical_formula_structural   AlH7C12O5
_chemical_formula_sum   'Al4 H28 C48 O20'
_cell_volume   2164.01396173
_cell_formula_units_Z   4
loop_
 _symmetry_equiv_pos_site_id
 _symmetry_equiv_pos_as_xyz
  1  'x, y, z'
loop_
 _atom_site_type_symbol
 _atom_site_label
 _atom_site_symmetry_multiplicity
 _atom_site_fract_x
 _atom_site_fract_y
 _atom_site_fract_z
 _atom_site_occupancy
  Al  Al1  1  0.74972000  0.75170000  0.75669000  1.0
  Al  Al2  1  0.25001000  0.75173000  0.74439000  1.0
  Al  Al3  1  0.24682000  0.25166000  0.24414000  1.0
  Al  Al4  1  0.74714000  0.25190000  0.25607000  1.0
  H  H1  1  0.24452000  0.61589000  0.56098000  1.0
  H  H2  1  0.75439000  0.61586000  0.93988000  1.0
  H  H3  1  0.74540000  0.88597000  0.94113000  1.0
  H  H4  1  0.25374000  0.88621000  0.55923000  1.0
  H  H5  1  0.75290000  0.38620000  0.44048000  1.0
  H  H6  1  0.24408000  0.38632000  0.05989000  1.0
  H  H7  1  0.25350000  0.11669000  0.06013000  1.0
  H  H8  1  0.74135000  0.11531000  0.44011000  1.0
  H  H9  1  0.82805000  0.55527000  0.63712000  1.0
  H  H10  1  0.17021000  0.55619000  0.86372000  1.0
  H  H11  1  0.32903000  0.94641000  0.86433000  1.0
  H  H12  1  0.67005000  0.94575000  0.63622000  1.0
  H  H13  1  0.16807000  0.44642000  0.36516000  1.0
  H  H14  1  0.82865000  0.44603000  0.13580000  1.0
  H  H15  1  0.67004000  0.05592000  0.13682000  1.0
  H  H16  1  0.32415000  0.05573000  0.36238000  1.0
  H  H17  1  0.88054000  0.45600000  0.54361000  1.0
  H  H18  1  0.11809000  0.45571000  0.95683000  1.0
  H  H19  1  0.38151000  0.04635000  0.95750000  1.0
  H  H20  1  0.61661000  0.04555000  0.54306000  1.0
  H  H21  1  0.11729000  0.54630000  0.45843000  1.0
  H  H22  1  0.88210000  0.54524000  0.04194000  1.0
  H  H23  1  0.61925000  0.95507000  0.04411000  1.0
  H  H24  1  0.37898000  0.95632000  0.45559000  1.0
  H  H25  1  0.49729000  0.14332000  0.24791000  1.0
  H  H26  1  0.50001000  0.86022000  0.75100000  1.0
  H  H27  1  0.99788000  0.36049000  0.25084000  1.0
  H  H28  1  0.99898000  0.64336000  0.74790000  1.0
  C  C1  1  0.50747000  0.65111000  0.66044000  1.0
  C  C2  1  0.49212000  0.65113000  0.84023000  1.0
  C  C3  1  0.00872000  0.85153000  0.84111000  1.0
  C  C4  1  0.99141000  0.85174000  0.65988000  1.0
  C  C5  1  0.48884000  0.35093000  0.34127000  1.0
  C  C6  1  0.50638000  0.35246000  0.16045000  1.0
  C  C7  1  0.98926000  0.15173000  0.15970000  1.0
  C  C8  1  0.00299000  0.15097000  0.33983000  1.0
  C  C9  1  0.53122000  0.59055000  0.60469000  1.0
  C  C10  1  0.46729000  0.59086000  0.89616000  1.0
  C  C11  1  0.03232000  0.91147000  0.89714000  1.0
  C  C12  1  0.96729000  0.91130000  0.60339000  1.0
  C  C13  1  0.46579000  0.41141000  0.39718000  1.0
  C  C14  1  0.53095000  0.41167000  0.10375000  1.0
  C  C15  1  0.96633000  0.09129000  0.10393000  1.0
  C  C16  1  0.02739000  0.09045000  0.39558000  1.0
  C  C17  1  0.71264000  0.54520000  0.59960000  1.0
  C  C18  1  0.28560000  0.54558000  0.90116000  1.0
  C  C19  1  0.21392000  0.95673000  0.90200000  1.0
  C  C20  1  0.78515000  0.95619000  0.59854000  1.0
  C  C21  1  0.28415000  0.45665000  0.40243000  1.0
  C  C22  1  0.71330000  0.45645000  0.09833000  1.0
  C  C23  1  0.78538000  0.04561000  0.09923000  1.0
  C  C24  1  0.20939000  0.04540000  0.40018000  1.0
  C  C25  1  0.74118000  0.49039000  0.54782000  1.0
  C  C26  1  0.25726000  0.49034000  0.95273000  1.0
  C  C27  1  0.24236000  0.01176000  0.95355000  1.0
  C  C28  1  0.75583000  0.01104000  0.54689000  1.0
  C  C29  1  0.25628000  0.51167000  0.45409000  1.0
  C  C30  1  0.74238000  0.51107000  0.04642000  1.0
  C  C31  1  0.75767000  0.99017000  0.04791000  1.0
  C  C32  1  0.23927000  0.99050000  0.45182000  1.0
  C  C33  1  0.40705000  0.52387000  0.50345000  1.0
  C  C34  1  0.59163000  0.52356000  0.99711000  1.0
  C  C35  1  0.90825000  0.97806000  0.99836000  1.0
  C  C36  1  0.08971000  0.97794000  0.50171000  1.0
  C  C37  1  0.59069000  0.47820000  0.49833000  1.0
  C  C38  1  0.40777000  0.47794000  0.00217000  1.0
  C  C39  1  0.09161000  0.02406000  0.00304000  1.0
  C  C40  1  0.90569000  0.02342000  0.49712000  1.0
  C  C41  1  0.38134000  0.57993000  0.55735000  1.0
  C  C42  1  0.61732000  0.57996000  0.94341000  1.0
  C  C43  1  0.88243000  0.92188000  0.94460000  1.0
  C  C44  1  0.11659000  0.92196000  0.55567000  1.0
  C  C45  1  0.61612000  0.42216000  0.44436000  1.0
  C  C46  1  0.38141000  0.42204000  0.05623000  1.0
  C  C47  1  0.11677000  0.08058000  0.05662000  1.0
  C  C48  1  0.87856000  0.07956000  0.44335000  1.0
  O  O1  1  0.66769000  0.67033000  0.69160000  1.0
  O  O2  1  0.33305000  0.66980000  0.80828000  1.0
  O  O3  1  0.16998000  0.83196000  0.81053000  1.0
  O  O4  1  0.83014000  0.83260000  0.69073000  1.0
  O  O5  1  0.32687000  0.33009000  0.31182000  1.0
  O  O6  1  0.66666667  0.33362000  0.19174000  1.0
  O  O7  1  0.82896000  0.17063000  0.19121000  1.0
  O  O8  1  0.16340000  0.17030000  0.30877000  1.0
  O  O9  1  0.33219000  0.67826000  0.67314000  1.0
  O  O10  1  0.66773000  0.67842000  0.82810000  1.0
  O  O11  1  0.83271000  0.82560000  0.82770000  1.0
  O  O12  1  0.16719000  0.82577000  0.67354000  1.0
  O  O13  1  0.66500000  0.32576000  0.32687000  1.0
  O  O14  1  0.33077000  0.32625000  0.17400000  1.0
  O  O15  1  0.16465000  0.17877000  0.17225000  1.0
  O  O16  1  0.82768000  0.17793000  0.32692000  1.0
  O  O17  1  0.49997000  0.80081000  0.75075000  1.0
  O  O18  1  0.99981000  0.70266000  0.75081000  1.0
  O  O19  1  0.49642000  0.20271000  0.24930000  1.0
  O  O20  1  0.99793000  0.30109000  0.24941000  1.0
