# generated using pymatgen
data_Cd5H24C44(N5O8)2
_symmetry_space_group_name_H-M   'P 1'
_cell_length_a   10.12012000
_cell_length_b   10.83818000
_cell_length_c   14.84514000
_cell_angle_alpha   98.42039000
_cell_angle_beta   95.91871000
_cell_angle_gamma   110.26357000
_symmetry_Int_Tables_number   1
_chemical_formula_structural   Cd5H24C44(N5O8)2
_chemical_formula_sum   'Cd5 H24 C44 N10 O16'
_cell_volume   1490.12316292
_cell_formula_units_Z   1
loop_
 _symmetry_equiv_pos_site_id
 _symmetry_equiv_pos_as_xyz
  1  'x, y, z'
loop_
 _atom_site_type_symbol
 _atom_site_label
 _atom_site_symmetry_multiplicity
 _atom_site_fract_x
 _atom_site_fract_y
 _atom_site_fract_z
 _atom_site_occupancy
  Cd  Cd0  1  0.00000000  0.50000000  0.00000000  1
  Cd  Cd1  1  0.90346000  0.37775000  0.39648000  1
  Cd  Cd2  1  0.01927000  0.27403000  0.17389000  1
  Cd  Cd3  1  0.09654000  0.62225000  0.60352000  1
  Cd  Cd4  1  0.98073000  0.72597000  0.82611000  1
  H  H5  1  0.31516000  0.05369000  0.82441000  1
  H  H6  1  0.16964000  0.92419000  0.34329000  1
  H  H7  1  0.60688000  0.58031000  0.66674000  1
  H  H8  1  0.45812000  0.21732000  0.19405000  1
  H  H9  1  0.74488000  0.54001000  0.07700000  1
  H  H10  1  0.82225000  0.84922000  0.68243000  1
  H  H11  1  0.65494000  0.48709000  0.38211000  1
  H  H12  1  0.52464000  0.22685000  0.93423000  1
  H  H13  1  0.54188000  0.78267000  0.80596000  1
  H  H14  1  0.08257000  0.01325000  0.93690000  1
  H  H15  1  0.17775000  0.15077000  0.31757000  1
  H  H16  1  0.83036000  0.07581000  0.65671000  1
  H  H17  1  0.25512000  0.45999000  0.92300000  1
  H  H18  1  0.91743000  0.98674000  0.06310000  1
  H  H19  1  0.53875000  0.46088000  0.16014000  1
  H  H20  1  0.09161000  0.24397000  0.92682000  1
  H  H21  1  0.39313000  0.41969000  0.33326000  1
  H  H22  1  0.34506000  0.51291000  0.61789000  1
  H  H23  1  0.68484000  0.94631000  0.17559000  1
  H  H24  1  0.46125000  0.53912000  0.83986000  1
  H  H25  1  0.26031000  0.05285000  0.07494000  1
  H  H26  1  0.47536000  0.77315000  0.06577000  1
  H  H27  1  0.73969000  0.94715000  0.92506000  1
  H  H28  1  0.90839000  0.75602000  0.07318000  1
  C  C29  1  0.35245000  0.46117000  0.47250000  1
  C  C30  1  0.47693000  0.52143000  0.90979000  1
  C  C31  1  0.29865000  0.81226000  0.73563000  1
  C  C32  1  0.64755000  0.53883000  0.52751000  1
  C  C33  1  0.03648000  0.82141000  0.21060000  1
  C  C34  1  0.59005000  0.96725000  0.15432000  1
  C  C35  1  0.88074000  0.93990000  0.73392000  1
  C  C36  1  0.36213000  0.47656000  0.95628000  1
  C  C37  1  0.58353000  0.09108000  0.19249000  1
  C  C38  1  0.35217000  0.02903000  0.09855000  1
  C  C39  1  0.52566000  0.12833000  0.90718000  1
  C  C40  1  0.46345000  0.12153000  0.16452000  1
  C  C41  1  0.80454000  0.58429000  0.55932000  1
  C  C42  1  0.96352000  0.17859000  0.78941000  1
  C  C43  1  0.02493000  0.03183000  0.87759000  1
  C  C44  1  0.11926000  0.06010000  0.26608000  1
  C  C45  1  0.64783000  0.97097000  0.90145000  1
  C  C46  1  0.22775000  0.79914000  0.99988000  1
  C  C47  1  0.26146000  0.40284000  0.09602000  1
  C  C48  1  0.58727000  0.49280000  0.43361000  1
  C  C49  1  0.88542000  0.06544000  0.72037000  1
  C  C50  1  0.41273000  0.50719000  0.56639000  1
  C  C51  1  0.38430000  0.45483000  0.04671000  1
  C  C52  1  0.98086000  0.31250000  0.77260000  1
  C  C53  1  0.03173000  0.16019000  0.87047000  1
  C  C54  1  0.73854000  0.59716000  0.90398000  1
  C  C55  1  0.52307000  0.47857000  0.09021000  1
  C  C56  1  0.70135000  0.18773000  0.26438000  1
  C  C57  1  0.55944000  0.54589000  0.59394000  1
  C  C58  1  0.53655000  0.87847000  0.83548000  1
  C  C59  1  0.47434000  0.87166000  0.09282000  1
  C  C60  1  0.40995000  0.03274000  0.84568000  1
  C  C61  1  0.77225000  0.20086000  0.00013000  1
  C  C62  1  0.35460000  0.90212000  0.06447000  1
  C  C63  1  0.11458000  0.93455000  0.27963000  1
  C  C64  1  0.01914000  0.68750000  0.22740000  1
  C  C65  1  0.64540000  0.09788000  0.93553000  1
  C  C66  1  0.61570000  0.54517000  0.95329000  1
  C  C67  1  0.63787000  0.52344000  0.04372000  1
  C  C68  1  0.41647000  0.90892000  0.80751000  1
  C  C69  1  0.96827000  0.83980000  0.12953000  1
  C  C70  1  0.19547000  0.41571000  0.44068000  1
  C  C71  1  0.97507000  0.96817000  0.12241000  1
  C  C72  1  0.44056000  0.45411000  0.40606000  1
  N  N73  1  0.00710000  0.65785000  0.31211000  1
  N  N74  1  0.98450000  0.47902000  0.21247000  1
  N  N75  1  0.01466000  0.47220000  0.69999000  1
  N  N76  1  0.98534000  0.52780000  0.30002000  1
  N  N77  1  0.99500000  0.42237000  0.83554000  1
  N  N78  1  0.95178000  0.92350000  0.81057000  1
  N  N79  1  0.01551000  0.52098000  0.78753000  1
  N  N80  1  0.99290000  0.34215000  0.68790000  1
  N  N81  1  0.00500000  0.57762000  0.16446000  1
  N  N82  1  0.04822000  0.07650000  0.18943000  1
  O  O83  1  0.11497000  0.44974000  0.49556000  1
  O  O84  1  0.71980000  0.62570000  0.82532000  1
  O  O85  1  0.32686000  0.73049000  0.67623000  1
  O  O86  1  0.17138000  0.81275000  0.73180000  1
  O  O87  1  0.82862000  0.18724000  0.26820000  1
  O  O88  1  0.79398000  0.32401000  0.99974000  1
  O  O89  1  0.20602000  0.67598000  0.00026000  1
  O  O90  1  0.84854000  0.15579000  0.04960000  1
  O  O91  1  0.86000000  0.65646000  0.63778000  1
  O  O92  1  0.15146000  0.84421000  0.95040000  1
  O  O93  1  0.14000000  0.34353000  0.36223000  1
  O  O94  1  0.28020000  0.37429000  0.17468000  1
  O  O95  1  0.67314000  0.26951000  0.32377000  1
  O  O96  1  0.13388000  0.38099000  0.05429000  1
  O  O97  1  0.88503000  0.55025000  0.50444000  1
  O  O98  1  0.86612000  0.61900000  0.94571000  1
