# generated using pymatgen
data_AlH4C8O5
_symmetry_space_group_name_H-M   'P 1'
_cell_length_a   11.91468000
_cell_length_b   14.86406000
_cell_length_c   14.94752000
_cell_angle_alpha   89.96558000
_cell_angle_beta   90.04076000
_cell_angle_gamma   89.98033000
_symmetry_Int_Tables_number   1
_chemical_formula_structural   AlH4C8O5
_chemical_formula_sum   'Al8 H32 C64 O40'
_cell_volume   2647.21223688
_cell_formula_units_Z   8
loop_
 _symmetry_equiv_pos_site_id
 _symmetry_equiv_pos_as_xyz
  1  'x, y, z'
loop_
 _atom_site_type_symbol
 _atom_site_label
 _atom_site_symmetry_multiplicity
 _atom_site_fract_x
 _atom_site_fract_y
 _atom_site_fract_z
 _atom_site_occupancy
  Al  Al1  1  0.50072000  0.69156000  0.30829000  1.0
  Al  Al2  1  0.00095000  0.19270000  0.81025000  1.0
  Al  Al3  1  0.00043000  0.80884000  0.19352000  1.0
  Al  Al4  1  0.50085000  0.30609000  0.69262000  1.0
  Al  Al5  1  0.25101000  0.80824000  0.30851000  1.0
  Al  Al6  1  0.75064000  0.30894000  0.80847000  1.0
  Al  Al7  1  0.75159000  0.69140000  0.19460000  1.0
  Al  Al8  1  0.25081000  0.18984000  0.69408000  1.0
  H  H1  1  0.07841000  0.62957000  0.43515000  1.0
  H  H2  1  0.57509000  0.12020000  0.92606000  1.0
  H  H3  1  0.58209000  0.86417000  0.06228000  1.0
  H  H4  1  0.07620000  0.37457000  0.57256000  1.0
  H  H5  1  0.83063000  0.93895000  0.36837000  1.0
  H  H6  1  0.32699000  0.43669000  0.87098000  1.0
  H  H7  1  0.32892000  0.57414000  0.12529000  1.0
  H  H8  1  0.82660000  0.06885000  0.62636000  1.0
  H  H9  1  0.16921000  0.63102000  0.06903000  1.0
  H  H10  1  0.67031000  0.13175000  0.56524000  1.0
  H  H11  1  0.67375000  0.87538000  0.42958000  1.0
  H  H12  1  0.17162000  0.37674000  0.92875000  1.0
  H  H13  1  0.42438000  0.92458000  0.12211000  1.0
  H  H14  1  0.92015000  0.43496000  0.63226000  1.0
  H  H15  1  0.92070000  0.57049000  0.37634000  1.0
  H  H16  1  0.41909000  0.05838000  0.86559000  1.0
  H  H17  1  0.38609000  0.76540000  0.19032000  1.0
  H  H18  1  0.86145000  0.22679000  0.69430000  1.0
  H  H19  1  0.86894000  0.76502000  0.31504000  1.0
  H  H20  1  0.36110000  0.27176000  0.80822000  1.0
  H  H21  1  0.11295000  0.69108000  0.27177000  1.0
  H  H22  1  0.61323000  0.19133000  0.77391000  1.0
  H  H23  1  0.63267000  0.81321000  0.26062000  1.0
  H  H24  1  0.11306000  0.30707000  0.72932000  1.0
  H  H25  1  0.38930000  0.49819000  0.50015000  1.0
  H  H26  1  0.88994000  0.00104000  0.00123000  1.0
  H  H27  1  0.14034000  0.00220000  0.50140000  1.0
  H  H28  1  0.63966000  0.49894000  0.00039000  1.0
  H  H29  1  0.85916000  0.49948000  0.00300000  1.0
  H  H30  1  0.36063000  0.99933000  0.50013000  1.0
  H  H31  1  0.11048000  0.99827000  0.00094000  1.0
  H  H32  1  0.60911000  0.50207000  0.50321000  1.0
  C  C1  1  0.29786000  0.64107000  0.40765000  1.0
  C  C2  1  0.23906000  0.56942000  0.45969000  1.0
  C  C3  1  0.12180000  0.57206000  0.46394000  1.0
  C  C4  1  0.79598000  0.14041000  0.90641000  1.0
  C  C5  1  0.73795000  0.06603000  0.95503000  1.0
  C  C6  1  0.62059000  0.06385000  0.95505000  1.0
  C  C7  1  0.80048000  0.85762000  0.09318000  1.0
  C  C8  1  0.74085000  0.92719000  0.03913000  1.0
  C  C9  1  0.62383000  0.92244000  0.03350000  1.0
  C  C10  1  0.29614000  0.35762000  0.59507000  1.0
  C  C11  1  0.23812000  0.43077000  0.54438000  1.0
  C  C12  1  0.12071000  0.43115000  0.54313000  1.0
  C  C13  1  0.04936000  0.91033000  0.35816000  1.0
  C  C14  1  0.99056000  0.96234000  0.42953000  1.0
  C  C15  1  0.87327000  0.96633000  0.42665000  1.0
  C  C16  1  0.54602000  0.40673000  0.85869000  1.0
  C  C17  1  0.48843000  0.45982000  0.92995000  1.0
  C  C18  1  0.37118000  0.46479000  0.92816000  1.0
  C  C19  1  0.54891000  0.59338000  0.14141000  1.0
  C  C20  1  0.48945000  0.54406000  0.06830000  1.0
  C  C21  1  0.37196000  0.54372000  0.06871000  1.0
  C  C22  1  0.04614000  0.09338000  0.64285000  1.0
  C  C23  1  0.98848000  0.04363000  0.56940000  1.0
  C  C24  1  0.87123000  0.04153000  0.56906000  1.0
  C  C25  1  0.95102000  0.64172000  0.09572000  1.0
  C  C26  1  0.00947000  0.57081000  0.04294000  1.0
  C  C27  1  0.12672000  0.57375000  0.03900000  1.0
  C  C28  1  0.45173000  0.14235000  0.59193000  1.0
  C  C29  1  0.51054000  0.07101000  0.54011000  1.0
  C  C30  1  0.62778000  0.07398000  0.53625000  1.0
  C  C31  1  0.45379000  0.85862000  0.40762000  1.0
  C  C32  1  0.51212000  0.93206000  0.45692000  1.0
  C  C33  1  0.62943000  0.93246000  0.45820000  1.0
  C  C34  1  0.95208000  0.35906000  0.90888000  1.0
  C  C35  1  0.01053000  0.43242000  0.95858000  1.0
  C  C36  1  0.12795000  0.43313000  0.95928000  1.0
  C  C37  1  0.20409000  0.90470000  0.14088000  1.0
  C  C38  1  0.26216000  0.95321000  0.06697000  1.0
  C  C39  1  0.37953000  0.95341000  0.06555000  1.0
  C  C40  1  0.70135000  0.40945000  0.64499000  1.0
  C  C41  1  0.75973000  0.46098000  0.57322000  1.0
  C  C42  1  0.87708000  0.46409000  0.57499000  1.0
  C  C43  1  0.70158000  0.59312000  0.36105000  1.0
  C  C44  1  0.76009000  0.54367000  0.43426000  1.0
  C  C45  1  0.87745000  0.54173000  0.43366000  1.0
  C  C46  1  0.20143000  0.08813000  0.85668000  1.0
  C  C47  1  0.25994000  0.03545000  0.92766000  1.0
  C  C48  1  0.37708000  0.03023000  0.92379000  1.0
  C  C49  1  0.29810000  0.49933000  0.50126000  1.0
  C  C50  1  0.06110000  0.50233000  0.50421000  1.0
  C  C51  1  0.79884000  0.99827000  0.99858000  1.0
  C  C52  1  0.56211000  0.99161000  0.99309000  1.0
  C  C53  1  0.04911000  0.00273000  0.50016000  1.0
  C  C54  1  0.81217000  0.00441000  0.49703000  1.0
  C  C55  1  0.54846000  0.50080000  0.99958000  1.0
  C  C56  1  0.31138000  0.50485000  0.99822000  1.0
  C  C57  1  0.95036000  0.50082000  0.00159000  1.0
  C  C58  1  0.18756000  0.50428000  0.99841000  1.0
  C  C59  1  0.45179000  0.00074000  0.49915000  1.0
  C  C60  1  0.68863000  0.00398000  0.49665000  1.0
  C  C61  1  0.20157000  0.99581000  0.99870000  1.0
  C  C62  1  0.43840000  0.99089000  0.99353000  1.0
  C  C63  1  0.70033000  0.50220000  0.50354000  1.0
  C  C64  1  0.93740000  0.50314000  0.50459000  1.0
  O  O1  1  0.39481000  0.62251000  0.37777000  1.0
  O  O2  1  0.24379000  0.71462000  0.39524000  1.0
  O  O3  1  0.89512000  0.12436000  0.87973000  1.0
  O  O4  1  0.73967000  0.21285000  0.89351000  1.0
  O  O5  1  0.89570000  0.87952000  0.12479000  1.0
  O  O6  1  0.74924000  0.78308000  0.10557000  1.0
  O  O7  1  0.39483000  0.37402000  0.62244000  1.0
  O  O8  1  0.23959000  0.28552000  0.60889000  1.0
  O  O9  1  0.14636000  0.88016000  0.37680000  1.0
  O  O10  1  0.99470000  0.89766000  0.28538000  1.0
  O  O11  1  0.64404000  0.37813000  0.87605000  1.0
  O  O12  1  0.48955000  0.39177000  0.78704000  1.0
  O  O13  1  0.64687000  0.62231000  0.12438000  1.0
  O  O14  1  0.49475000  0.60467000  0.21449000  1.0
  O  O15  1  0.14485000  0.12059000  0.62630000  1.0
  O  O16  1  0.98982000  0.10667000  0.71479000  1.0
  O  O17  1  0.85598000  0.62148000  0.12852000  1.0
  O  O18  1  0.00296000  0.71618000  0.10628000  1.0
  O  O19  1  0.35470000  0.12392000  0.62196000  1.0
  O  O20  1  0.50590000  0.21539000  0.60433000  1.0
  O  O21  1  0.35515000  0.87559000  0.38012000  1.0
  O  O22  1  0.50979000  0.78608000  0.39526000  1.0
  O  O23  1  0.85439000  0.37691000  0.87946000  1.0
  O  O24  1  0.00581000  0.28539000  0.89781000  1.0
  O  O25  1  0.10581000  0.87619000  0.12452000  1.0
  O  O26  1  0.25977000  0.89340000  0.21346000  1.0
  O  O27  1  0.60495000  0.37796000  0.62638000  1.0
  O  O28  1  0.75491000  0.39885000  0.71838000  1.0
  O  O29  1  0.60342000  0.62197000  0.37790000  1.0
  O  O30  1  0.75610000  0.60463000  0.28840000  1.0
  O  O31  1  0.10536000  0.12005000  0.87585000  1.0
  O  O32  1  0.25489000  0.09914000  0.78334000  1.0
  O  O33  1  0.37715000  0.75069000  0.25296000  1.0
  O  O34  1  0.87836000  0.25369000  0.75180000  1.0
  O  O35  1  0.87709000  0.75055000  0.25231000  1.0
  O  O36  1  0.37832000  0.24453000  0.75092000  1.0
  O  O37  1  0.12706000  0.75124000  0.24951000  1.0
  O  O38  1  0.62896000  0.24938000  0.74707000  1.0
  O  O39  1  0.62590000  0.74933000  0.24931000  1.0
  O  O40  1  0.12880000  0.24865000  0.75530000  1.0
