# generated using pymatgen
data_Zn2H30C49N9O8
_symmetry_space_group_name_H-M   'P 1'
_cell_length_a   14.63961000
_cell_length_b   15.32872000
_cell_length_c   15.62491000
_cell_angle_alpha   112.34057000
_cell_angle_beta   107.02980000
_cell_angle_gamma   104.59446000
_symmetry_Int_Tables_number   1
_chemical_formula_structural   Zn2H30C49N9O8
_chemical_formula_sum   'Zn4 H60 C98 N18 O16'
_cell_volume   2827.22089933
_cell_formula_units_Z   2
loop_
 _symmetry_equiv_pos_site_id
 _symmetry_equiv_pos_as_xyz
  1  'x, y, z'
loop_
 _atom_site_type_symbol
 _atom_site_label
 _atom_site_symmetry_multiplicity
 _atom_site_fract_x
 _atom_site_fract_y
 _atom_site_fract_z
 _atom_site_occupancy
  Zn  Zn0  1  0.96341000  0.07536000  0.70058000  1
  Zn  Zn1  1  0.57235000  0.12165000  0.74605000  1
  Zn  Zn2  1  0.03659000  0.92465000  0.29942000  1
  Zn  Zn3  1  0.42765000  0.87835000  0.25395000  1
  H  H4  1  0.68640000  0.72595000  0.36000000  1
  H  H5  1  0.56821000  0.54619000  0.30839000  1
  H  H6  1  0.02254000  0.48925000  0.25251000  1
  H  H7  1  0.85811000  0.77432000  0.65973000  1
  H  H8  1  0.06935000  0.08113000  0.05910000  1
  H  H9  1  0.74097000  0.59955000  0.61226000  1
  H  H10  1  0.30419000  0.83112000  0.52900000  1
  H  H11  1  0.90349000  0.44082000  0.07379000  1
  H  H12  1  0.16079000  0.65553000  0.44319000  1
  H  H13  1  0.71015000  0.01280000  0.80885000  1
  H  H14  1  0.84659000  0.03780000  0.83157000  1
  H  H15  1  0.21540000  0.16413000  0.23003000  1
  H  H16  1  0.35452000  0.19834000  0.34110000  1
  H  H17  1  0.79494000  0.23201000  0.23232000  1
  H  H18  1  0.45747000  0.78572000  0.77885000  1
  H  H19  1  0.31292000  0.61350000  0.69703000  1
  H  H20  1  0.25360000  0.27067000  0.97503000  1
  H  H21  1  0.40074000  0.11927000  0.41442000  1
  H  H22  1  0.40235000  0.35794000  0.15042000  1
  H  H23  1  0.18649000  0.48207000  0.63252000  1
  H  H24  1  0.61619000  0.42144000  0.67435000  1
  H  H25  1  0.12453000  0.41161000  0.70655000  1
  H  H26  1  0.41441000  0.05105000  0.53616000  1
  H  H27  1  0.93785000  0.14549000  0.40224000  1
  H  H28  1  0.91543000  0.03732000  0.48583000  1
  H  H29  1  0.91009000  0.25078000  0.35598000  1
  H  H30  1  0.64723000  0.45687000  0.56640000  1
  H  H31  1  0.67977000  0.18449000  0.05559000  1
  H  H32  1  0.10351000  0.29048000  0.77607000  1
  H  H33  1  0.63150000  0.33732000  0.78367000  1
  H  H34  1  0.31360000  0.27406000  0.64000000  1
  H  H35  1  0.43179000  0.45381000  0.69161000  1
  H  H36  1  0.97746000  0.51075000  0.74749000  1
  H  H37  1  0.14189000  0.22568000  0.34027000  1
  H  H38  1  0.93065000  0.91888000  0.94090000  1
  H  H39  1  0.25903000  0.40045000  0.38774000  1
  H  H40  1  0.69581000  0.16888000  0.47100000  1
  H  H41  1  0.09651000  0.55918000  0.92621000  1
  H  H42  1  0.83921000  0.34447000  0.55681000  1
  H  H43  1  0.28985000  0.98720000  0.19115000  1
  H  H44  1  0.15341000  0.96220000  0.16843000  1
  H  H45  1  0.78460000  0.83588000  0.76997000  1
  H  H46  1  0.64548000  0.80166000  0.65891000  1
  H  H47  1  0.20506000  0.76799000  0.76768000  1
  H  H48  1  0.54253000  0.21429000  0.22115000  1
  H  H49  1  0.68708000  0.38651000  0.30297000  1
  H  H50  1  0.74640000  0.72933000  0.02497000  1
  H  H51  1  0.59926000  0.88073000  0.58558000  1
  H  H52  1  0.59765000  0.64206000  0.84959000  1
  H  H53  1  0.81351000  0.51793000  0.36748000  1
  H  H54  1  0.38381000  0.57856000  0.32566000  1
  H  H55  1  0.87547000  0.58839000  0.29345000  1
  H  H56  1  0.58559000  0.94895000  0.46384000  1
  H  H57  1  0.06215000  0.85452000  0.59776000  1
  H  H58  1  0.08457000  0.96269000  0.51417000  1
  H  H59  1  0.08991000  0.74922000  0.64402000  1
  H  H60  1  0.35277000  0.54314000  0.43361000  1
  H  H61  1  0.32023000  0.81551000  0.94441000  1
  H  H62  1  0.89649000  0.70952000  0.22393000  1
  H  H63  1  0.36850000  0.66268000  0.21634000  1
  C  C64  1  0.69755000  0.69576000  0.41324000  1
  C  C65  1  0.63230000  0.59660000  0.38484000  1
  C  C66  1  0.77754000  0.76138000  0.51364000  1
  C  C67  1  0.94729000  0.42290000  0.20900000  1
  C  C68  1  0.79394000  0.72399000  0.58326000  1
  C  C69  1  0.14238000  0.14117000  0.07868000  1
  C  C70  1  0.72789000  0.62504000  0.55540000  1
  C  C71  1  0.04613000  0.35746000  0.50086000  1
  C  C72  1  0.30534000  0.78284000  0.56505000  1
  C  C73  1  0.88127000  0.39636000  0.11016000  1
  C  C74  1  0.22544000  0.68497000  0.51707000  1
  C  C75  1  0.22613000  0.62152000  0.56308000  1
  C  C76  1  0.22564000  0.18813000  0.17517000  1
  C  C77  1  0.38975000  0.81913000  0.65949000  1
  C  C78  1  0.64402000  0.56042000  0.45628000  1
  C  C79  1  0.91871000  0.36338000  0.25462000  1
  C  C80  1  0.50839000  0.27714000  0.53325000  1
  C  C81  1  0.32035000  0.26712000  0.20238000  1
  C  C82  1  0.41581000  0.27248000  0.36793000  1
  C  C83  1  0.82085000  0.27776000  0.19847000  1
  C  C84  1  0.50111000  0.32243000  0.46448000  1
  C  C85  1  0.39116000  0.75709000  0.70626000  1
  C  C86  1  0.30988000  0.66013000  0.65935000  1
  C  C87  1  0.40917000  0.31856000  0.30474000  1
  C  C88  1  0.24665000  0.24901000  0.03224000  1
  C  C89  1  0.03308000  0.28953000  0.54689000  1
  C  C90  1  0.14061000  0.51733000  0.50896000  1
  C  C91  1  0.45052000  0.17177000  0.49584000  1
  C  C92  1  0.32922000  0.29715000  0.12932000  1
  C  C93  1  0.78483000  0.30964000  0.05397000  1
  C  C94  1  0.83949000  0.87223000  0.54679000  1
  C  C95  1  0.12968000  0.45503000  0.55535000  1
  C  C96  1  0.15232000  0.17069000  0.00605000  1
  C  C97  1  0.57210000  0.33851000  0.63938000  1
  C  C98  1  0.08021000  0.32903000  0.65381000  1
  C  C99  1  0.56651000  0.45940000  0.42738000  1
  C  C100  1  0.45855000  0.13244000  0.56315000  1
  C  C101  1  0.97390000  0.18235000  0.48552000  1
  C  C102  1  0.96354000  0.12028000  0.53076000  1
  C  C103  1  0.97626000  0.32572000  0.40082000  1
  C  C104  1  0.47938000  0.92210000  0.70829000  1
  C  C105  1  0.57805000  0.41706000  0.49364000  1
  C  C106  1  0.06233000  0.11902000  0.90192000  1
  C  C107  1  0.99142000  0.39194000  0.35902000  1
  C  C108  1  0.75486000  0.25117000  0.09946000  1
  C  C109  1  0.06799000  0.26220000  0.69366000  1
  C  C110  1  0.57855000  0.29365000  0.70190000  1
  C  C111  1  0.76763000  0.08267000  0.73692000  1
  C  C112  1  0.71698000  0.27898000  0.94531000  1
  C  C113  1  0.30245000  0.30425000  0.58676000  1
  C  C114  1  0.36770000  0.40340000  0.61517000  1
  C  C115  1  0.22246000  0.23862000  0.48636000  1
  C  C116  1  0.05271000  0.57710000  0.79100000  1
  C  C117  1  0.20606000  0.27601000  0.41675000  1
  C  C118  1  0.85762000  0.85883000  0.92132000  1
  C  C119  1  0.27211000  0.37496000  0.44460000  1
  C  C120  1  0.95387000  0.64254000  0.49914000  1
  C  C121  1  0.69466000  0.21716000  0.43495000  1
  C  C122  1  0.11873000  0.60364000  0.88984000  1
  C  C123  1  0.77456000  0.31503000  0.48294000  1
  C  C124  1  0.77387000  0.37848000  0.43693000  1
  C  C125  1  0.77436000  0.81187000  0.82483000  1
  C  C126  1  0.61025000  0.18088000  0.34051000  1
  C  C127  1  0.35598000  0.43958000  0.54372000  1
  C  C128  1  0.08129000  0.63662000  0.74538000  1
  C  C129  1  0.49161000  0.72287000  0.46675000  1
  C  C130  1  0.67965000  0.73288000  0.79763000  1
  C  C131  1  0.58419000  0.72752000  0.63208000  1
  C  C132  1  0.17915000  0.72224000  0.80153000  1
  C  C133  1  0.49889000  0.67757000  0.53552000  1
  C  C134  1  0.60884000  0.24292000  0.29374000  1
  C  C135  1  0.69012000  0.33987000  0.34065000  1
  C  C136  1  0.59083000  0.68144000  0.69526000  1
  C  C137  1  0.75335000  0.75100000  0.96776000  1
  C  C138  1  0.96692000  0.71048000  0.45311000  1
  C  C139  1  0.85939000  0.48267000  0.49105000  1
  C  C140  1  0.54948000  0.82823000  0.50416000  1
  C  C141  1  0.67078000  0.70285000  0.87069000  1
  C  C142  1  0.21517000  0.69036000  0.94604000  1
  C  C143  1  0.16051000  0.12777000  0.45322000  1
  C  C144  1  0.87032000  0.54497000  0.44465000  1
  C  C145  1  0.84768000  0.82931000  0.99395000  1
  C  C146  1  0.42790000  0.66149000  0.36062000  1
  C  C147  1  0.91979000  0.67097000  0.34619000  1
  C  C148  1  0.43349000  0.54061000  0.57262000  1
  C  C149  1  0.54145000  0.86756000  0.43686000  1
  C  C150  1  0.02610000  0.81765000  0.51448000  1
  C  C151  1  0.03646000  0.87972000  0.46924000  1
  C  C152  1  0.02374000  0.67428000  0.59918000  1
  C  C153  1  0.52062000  0.07790000  0.29172000  1
  C  C154  1  0.42195000  0.58294000  0.50636000  1
  C  C155  1  0.93767000  0.88098000  0.09808000  1
  C  C156  1  0.00858000  0.60806000  0.64098000  1
  C  C157  1  0.24514000  0.74883000  0.90054000  1
  C  C158  1  0.93201000  0.73780000  0.30634000  1
  C  C159  1  0.42145000  0.70635000  0.29810000  1
  C  C160  1  0.23237000  0.91734000  0.26308000  1
  C  C161  1  0.28302000  0.72103000  0.05469000  1
  N  N162  1  0.01037000  0.15910000  0.63342000  1
  N  N163  1  0.52258000  0.19194000  0.66469000  1
  N  N164  1  0.07244000  0.48544000  0.41260000  1
  N  N165  1  0.77517000  0.03963000  0.79743000  1
  N  N166  1  0.48297000  0.41065000  0.33491000  1
  N  N167  1  0.79939000  0.14765000  0.64141000  1
  N  N168  1  0.70925000  0.14685000  0.64105000  1
  N  N169  1  0.68665000  0.10619000  0.69960000  1
  N  N170  1  0.83835000  0.10848000  0.70098000  1
  N  N171  1  0.98963000  0.84090000  0.36658000  1
  N  N172  1  0.47742000  0.80806000  0.33532000  1
  N  N173  1  0.92756000  0.51456000  0.58740000  1
  N  N174  1  0.22483000  0.96037000  0.20257000  1
  N  N175  1  0.51703000  0.58936000  0.66509000  1
  N  N176  1  0.20061000  0.85235000  0.35859000  1
  N  N177  1  0.29075000  0.85315000  0.35895000  1
  N  N178  1  0.31335000  0.89381000  0.30040000  1
  N  N179  1  0.16165000  0.89152000  0.29902000  1
  O  O180  1  0.45510000  0.98770000  0.68349000  1
  O  O181  1  0.08157000  0.14604000  0.83752000  1
  O  O182  1  0.97632000  0.05455000  0.88299000  1
  O  O183  1  0.81327000  0.90747000  0.48807000  1
  O  O184  1  0.56891000  0.93770000  0.76635000  1
  O  O185  1  0.91619000  0.92486000  0.63917000  1
  O  O186  1  0.63609000  0.19023000  0.89549000  1
  O  O187  1  0.74100000  0.33646000  0.90901000  1
  O  O188  1  0.54490000  0.01230000  0.31651000  1
  O  O189  1  0.91843000  0.85396000  0.16248000  1
  O  O190  1  0.02368000  0.94545000  0.11701000  1
  O  O191  1  0.18673000  0.09253000  0.51193000  1
  O  O192  1  0.43109000  0.06230000  0.23366000  1
  O  O193  1  0.08381000  0.07514000  0.36083000  1
  O  O194  1  0.36391000  0.80977000  0.10451000  1
  O  O195  1  0.25900000  0.66354000  0.09100000  1
