# generated using pymatgen
data_Zn3H4(C4O5)2
_symmetry_space_group_name_H-M   'P 1'
_cell_length_a   20.74379000
_cell_length_b   20.74379000
_cell_length_c   20.74379000
_cell_angle_alpha   90.00000000
_cell_angle_beta   90.00000000
_cell_angle_gamma   90.00000000
_symmetry_Int_Tables_number   1
_chemical_formula_structural   Zn3H4(C4O5)2
_chemical_formula_sum   'Zn72 H96 C192 O240'
_cell_volume   8926.15289600
_cell_formula_units_Z   24
loop_
 _symmetry_equiv_pos_site_id
 _symmetry_equiv_pos_as_xyz
  1  'x, y, z'
loop_
 _atom_site_type_symbol
 _atom_site_label
 _atom_site_symmetry_multiplicity
 _atom_site_fract_x
 _atom_site_fract_y
 _atom_site_fract_z
 _atom_site_occupancy
  Zn  Zn1  1  0.61105000  0.84802000  0.82657000  1.0
  Zn  Zn2  1  0.44004000  0.75160000  0.98910000  1.0
  Zn  Zn3  1  0.48210000  0.87864000  0.89489000  1.0
  Zn  Zn4  1  0.88896000  0.15198000  0.32657000  1.0
  Zn  Zn5  1  0.05996000  0.24840000  0.48910000  1.0
  Zn  Zn6  1  0.01790000  0.12136000  0.39489000  1.0
  Zn  Zn7  1  0.38896000  0.34802000  0.67343000  1.0
  Zn  Zn8  1  0.55996000  0.25160000  0.51090000  1.0
  Zn  Zn9  1  0.51790000  0.37864000  0.60511000  1.0
  Zn  Zn10  1  0.11104000  0.65198000  0.17343000  1.0
  Zn  Zn11  1  0.94004000  0.74840000  0.01090000  1.0
  Zn  Zn12  1  0.98210000  0.62136000  0.10511000  1.0
  Zn  Zn13  1  0.82657000  0.61105000  0.84802000  1.0
  Zn  Zn14  1  0.98910000  0.44004000  0.75160000  1.0
  Zn  Zn15  1  0.89489000  0.48210000  0.87864000  1.0
  Zn  Zn16  1  0.32657000  0.88896000  0.15198000  1.0
  Zn  Zn17  1  0.48910000  0.05996000  0.24840000  1.0
  Zn  Zn18  1  0.39489000  0.01790000  0.12136000  1.0
  Zn  Zn19  1  0.67343000  0.38896000  0.34802000  1.0
  Zn  Zn20  1  0.51090000  0.55996000  0.25160000  1.0
  Zn  Zn21  1  0.60511000  0.51790000  0.37864000  1.0
  Zn  Zn22  1  0.17343000  0.11104000  0.65198000  1.0
  Zn  Zn23  1  0.01090000  0.94004000  0.74840000  1.0
  Zn  Zn24  1  0.10511000  0.98210000  0.62136000  1.0
  Zn  Zn25  1  0.84802000  0.82657000  0.61105000  1.0
  Zn  Zn26  1  0.75160000  0.98910000  0.44004000  1.0
  Zn  Zn27  1  0.87864000  0.89489000  0.48210000  1.0
  Zn  Zn28  1  0.15198000  0.32657000  0.88896000  1.0
  Zn  Zn29  1  0.24840000  0.48910000  0.05996000  1.0
  Zn  Zn30  1  0.12136000  0.39489000  0.01790000  1.0
  Zn  Zn31  1  0.34802000  0.67343000  0.38896000  1.0
  Zn  Zn32  1  0.25160000  0.51090000  0.55996000  1.0
  Zn  Zn33  1  0.37864000  0.60511000  0.51790000  1.0
  Zn  Zn34  1  0.65198000  0.17343000  0.11104000  1.0
  Zn  Zn35  1  0.74840000  0.01090000  0.94004000  1.0
  Zn  Zn36  1  0.62136000  0.10511000  0.98210000  1.0
  Zn  Zn37  1  0.38896000  0.15198000  0.17343000  1.0
  Zn  Zn38  1  0.55996000  0.24840000  0.01090000  1.0
  Zn  Zn39  1  0.51790000  0.12136000  0.10511000  1.0
  Zn  Zn40  1  0.11104000  0.84802000  0.67343000  1.0
  Zn  Zn41  1  0.94004000  0.75160000  0.51090000  1.0
  Zn  Zn42  1  0.98210000  0.87864000  0.60511000  1.0
  Zn  Zn43  1  0.61105000  0.65198000  0.32657000  1.0
  Zn  Zn44  1  0.44004000  0.74840000  0.48910000  1.0
  Zn  Zn45  1  0.48210000  0.62136000  0.39489000  1.0
  Zn  Zn46  1  0.88896000  0.34802000  0.82657000  1.0
  Zn  Zn47  1  0.05996000  0.25160000  0.98910000  1.0
  Zn  Zn48  1  0.01790000  0.37864000  0.89489000  1.0
  Zn  Zn49  1  0.17343000  0.38896000  0.15198000  1.0
  Zn  Zn50  1  0.01090000  0.55996000  0.24840000  1.0
  Zn  Zn51  1  0.10511000  0.51790000  0.12136000  1.0
  Zn  Zn52  1  0.67343000  0.11104000  0.84802000  1.0
  Zn  Zn53  1  0.51090000  0.94004000  0.75160000  1.0
  Zn  Zn54  1  0.60511000  0.98210000  0.87864000  1.0
  Zn  Zn55  1  0.32657000  0.61105000  0.65198000  1.0
  Zn  Zn56  1  0.48910000  0.44004000  0.74840000  1.0
  Zn  Zn57  1  0.39489000  0.48210000  0.62136000  1.0
  Zn  Zn58  1  0.82657000  0.88896000  0.34802000  1.0
  Zn  Zn59  1  0.98910000  0.05996000  0.25160000  1.0
  Zn  Zn60  1  0.89489000  0.01790000  0.37864000  1.0
  Zn  Zn61  1  0.15198000  0.17343000  0.38896000  1.0
  Zn  Zn62  1  0.24840000  0.01090000  0.55996000  1.0
  Zn  Zn63  1  0.12136000  0.10511000  0.51790000  1.0
  Zn  Zn64  1  0.84802000  0.67343000  0.11104000  1.0
  Zn  Zn65  1  0.75160000  0.51090000  0.94004000  1.0
  Zn  Zn66  1  0.87864000  0.60511000  0.98210000  1.0
  Zn  Zn67  1  0.65198000  0.32657000  0.61105000  1.0
  Zn  Zn68  1  0.74840000  0.48910000  0.44004000  1.0
  Zn  Zn69  1  0.62136000  0.39489000  0.48210000  1.0
  Zn  Zn70  1  0.34802000  0.82657000  0.88896000  1.0
  Zn  Zn71  1  0.25160000  0.98910000  0.05996000  1.0
  Zn  Zn72  1  0.37864000  0.89489000  0.01790000  1.0
  H  H1  1  0.62214000  0.69482000  0.88010000  1.0
  H  H2  1  0.65726000  0.68979000  0.00738000  1.0
  H  H3  1  0.69469000  0.79710000  0.01621000  1.0
  H  H4  1  0.77278000  0.79743000  0.89259000  1.0
  H  H5  1  0.87786000  0.30518000  0.38010000  1.0
  H  H6  1  0.84274000  0.31021000  0.50738000  1.0
  H  H7  1  0.80532000  0.20290000  0.51621000  1.0
  H  H8  1  0.72722000  0.20257000  0.39259000  1.0
  H  H9  1  0.37786000  0.19482000  0.61990000  1.0
  H  H10  1  0.34274000  0.18979000  0.49262000  1.0
  H  H11  1  0.30531000  0.29710000  0.48379000  1.0
  H  H12  1  0.22722000  0.29743000  0.60741000  1.0
  H  H13  1  0.12214000  0.80518000  0.11990000  1.0
  H  H14  1  0.15726000  0.81021000  0.99262000  1.0
  H  H15  1  0.19469000  0.70290000  0.98379000  1.0
  H  H16  1  0.27278000  0.70257000  0.10741000  1.0
  H  H17  1  0.88010000  0.62214000  0.69482000  1.0
  H  H18  1  0.00738000  0.65726000  0.68979000  1.0
  H  H19  1  0.01621000  0.69469000  0.79710000  1.0
  H  H20  1  0.89259000  0.77278000  0.79743000  1.0
  H  H21  1  0.38010000  0.87786000  0.30518000  1.0
  H  H22  1  0.50738000  0.84274000  0.31021000  1.0
  H  H23  1  0.51621000  0.80532000  0.20290000  1.0
  H  H24  1  0.39259000  0.72722000  0.20257000  1.0
  H  H25  1  0.61990000  0.37786000  0.19482000  1.0
  H  H26  1  0.49262000  0.34274000  0.18979000  1.0
  H  H27  1  0.48379000  0.30531000  0.29710000  1.0
  H  H28  1  0.60741000  0.22722000  0.29743000  1.0
  H  H29  1  0.11990000  0.12214000  0.80518000  1.0
  H  H30  1  0.99262000  0.15726000  0.81021000  1.0
  H  H31  1  0.98379000  0.19469000  0.70290000  1.0
  H  H32  1  0.10741000  0.27278000  0.70257000  1.0
  H  H33  1  0.69482000  0.88010000  0.62214000  1.0
  H  H34  1  0.68979000  0.00738000  0.65726000  1.0
  H  H35  1  0.79710000  0.01621000  0.69469000  1.0
  H  H36  1  0.79743000  0.89259000  0.77278000  1.0
  H  H37  1  0.30518000  0.38010000  0.87786000  1.0
  H  H38  1  0.31021000  0.50738000  0.84274000  1.0
  H  H39  1  0.20290000  0.51621000  0.80532000  1.0
  H  H40  1  0.20257000  0.39259000  0.72722000  1.0
  H  H41  1  0.19482000  0.61990000  0.37786000  1.0
  H  H42  1  0.18979000  0.49262000  0.34274000  1.0
  H  H43  1  0.29710000  0.48379000  0.30531000  1.0
  H  H44  1  0.29743000  0.60741000  0.22722000  1.0
  H  H45  1  0.80518000  0.11990000  0.12214000  1.0
  H  H46  1  0.81021000  0.99262000  0.15726000  1.0
  H  H47  1  0.70290000  0.98379000  0.19469000  1.0
  H  H48  1  0.70257000  0.10741000  0.27278000  1.0
  H  H49  1  0.37786000  0.30518000  0.11990000  1.0
  H  H50  1  0.34274000  0.31021000  0.99262000  1.0
  H  H51  1  0.30531000  0.20290000  0.98379000  1.0
  H  H52  1  0.22722000  0.20257000  0.10741000  1.0
  H  H53  1  0.12214000  0.69482000  0.61990000  1.0
  H  H54  1  0.15726000  0.68979000  0.49262000  1.0
  H  H55  1  0.19469000  0.79710000  0.48379000  1.0
  H  H56  1  0.27278000  0.79743000  0.60741000  1.0
  H  H57  1  0.62214000  0.80518000  0.38010000  1.0
  H  H58  1  0.65726000  0.81021000  0.50738000  1.0
  H  H59  1  0.69469000  0.70290000  0.51621000  1.0
  H  H60  1  0.77278000  0.70257000  0.39259000  1.0
  H  H61  1  0.87786000  0.19482000  0.88010000  1.0
  H  H62  1  0.84274000  0.18979000  0.00738000  1.0
  H  H63  1  0.80532000  0.29710000  0.01621000  1.0
  H  H64  1  0.72722000  0.29743000  0.89259000  1.0
  H  H65  1  0.11990000  0.37786000  0.30518000  1.0
  H  H66  1  0.99262000  0.34274000  0.31021000  1.0
  H  H67  1  0.98379000  0.30531000  0.20290000  1.0
  H  H68  1  0.10741000  0.22722000  0.20257000  1.0
  H  H69  1  0.61990000  0.12214000  0.69482000  1.0
  H  H70  1  0.49262000  0.15726000  0.68979000  1.0
  H  H71  1  0.48379000  0.19469000  0.79710000  1.0
  H  H72  1  0.60741000  0.27278000  0.79743000  1.0
  H  H73  1  0.38010000  0.62214000  0.80518000  1.0
  H  H74  1  0.50738000  0.65726000  0.81021000  1.0
  H  H75  1  0.51621000  0.69469000  0.70290000  1.0
  H  H76  1  0.39259000  0.77278000  0.70257000  1.0
  H  H77  1  0.88010000  0.87786000  0.19482000  1.0
  H  H78  1  0.00738000  0.84274000  0.18979000  1.0
  H  H79  1  0.01621000  0.80532000  0.29710000  1.0
  H  H80  1  0.89259000  0.72722000  0.29743000  1.0
  H  H81  1  0.30518000  0.11990000  0.37786000  1.0
  H  H82  1  0.31021000  0.99262000  0.34274000  1.0
  H  H83  1  0.20290000  0.98379000  0.30531000  1.0
  H  H84  1  0.20257000  0.10741000  0.22722000  1.0
  H  H85  1  0.69482000  0.61990000  0.12214000  1.0
  H  H86  1  0.68979000  0.49262000  0.15726000  1.0
  H  H87  1  0.79710000  0.48379000  0.19469000  1.0
  H  H88  1  0.79743000  0.60741000  0.27278000  1.0
  H  H89  1  0.80518000  0.38010000  0.62214000  1.0
  H  H90  1  0.81021000  0.50738000  0.65726000  1.0
  H  H91  1  0.70290000  0.51621000  0.69469000  1.0
  H  H92  1  0.70257000  0.39259000  0.77278000  1.0
  H  H93  1  0.19482000  0.88010000  0.87786000  1.0
  H  H94  1  0.18979000  0.00738000  0.84274000  1.0
  H  H95  1  0.29710000  0.01621000  0.80532000  1.0
  H  H96  1  0.29743000  0.89259000  0.72722000  1.0
  C  C1  1  0.63756000  0.73269000  0.91398000  1.0
  C  C2  1  0.57444000  0.76261000  0.93948000  1.0
  C  C3  1  0.68385000  0.70772000  0.96549000  1.0
  C  C4  1  0.72208000  0.65240000  0.93526000  1.0
  C  C5  1  0.72347000  0.76948000  0.98124000  1.0
  C  C6  1  0.78770000  0.75506000  0.01516000  1.0
  C  C7  1  0.72647000  0.80599000  0.91665000  1.0
  C  C8  1  0.71567000  0.87881000  0.92339000  1.0
  C  C9  1  0.86244000  0.26732000  0.41398000  1.0
  C  C10  1  0.92557000  0.23739000  0.43948000  1.0
  C  C11  1  0.81615000  0.29228000  0.46549000  1.0
  C  C12  1  0.77792000  0.34760000  0.43526000  1.0
  C  C13  1  0.77653000  0.23052000  0.48124000  1.0
  C  C14  1  0.71230000  0.24494000  0.51516000  1.0
  C  C15  1  0.77353000  0.19401000  0.41665000  1.0
  C  C16  1  0.78433000  0.12119000  0.42339000  1.0
  C  C17  1  0.36244000  0.23269000  0.58602000  1.0
  C  C18  1  0.42556000  0.26261000  0.56052000  1.0
  C  C19  1  0.31615000  0.20772000  0.53451000  1.0
  C  C20  1  0.27792000  0.15240000  0.56474000  1.0
  C  C21  1  0.27653000  0.26948000  0.51876000  1.0
  C  C22  1  0.21230000  0.25506000  0.48484000  1.0
  C  C23  1  0.27353000  0.30599000  0.58335000  1.0
  C  C24  1  0.28433000  0.37881000  0.57661000  1.0
  C  C25  1  0.13756000  0.76732000  0.08602000  1.0
  C  C26  1  0.07444000  0.73739000  0.06052000  1.0
  C  C27  1  0.18385000  0.79228000  0.03451000  1.0
  C  C28  1  0.22208000  0.84760000  0.06474000  1.0
  C  C29  1  0.22347000  0.73052000  0.01876000  1.0
  C  C30  1  0.28770000  0.74494000  0.98484000  1.0
  C  C31  1  0.22647000  0.69401000  0.08335000  1.0
  C  C32  1  0.21567000  0.62119000  0.07661000  1.0
  C  C33  1  0.91398000  0.63756000  0.73269000  1.0
  C  C34  1  0.93948000  0.57444000  0.76261000  1.0
  C  C35  1  0.96549000  0.68385000  0.70772000  1.0
  C  C36  1  0.93526000  0.72208000  0.65240000  1.0
  C  C37  1  0.98124000  0.72347000  0.76948000  1.0
  C  C38  1  0.01516000  0.78770000  0.75506000  1.0
  C  C39  1  0.91665000  0.72647000  0.80599000  1.0
  C  C40  1  0.92339000  0.71567000  0.87881000  1.0
  C  C41  1  0.41398000  0.86244000  0.26732000  1.0
  C  C42  1  0.43948000  0.92557000  0.23739000  1.0
  C  C43  1  0.46549000  0.81615000  0.29228000  1.0
  C  C44  1  0.43526000  0.77792000  0.34760000  1.0
  C  C45  1  0.48124000  0.77653000  0.23052000  1.0
  C  C46  1  0.51516000  0.71230000  0.24494000  1.0
  C  C47  1  0.41665000  0.77353000  0.19401000  1.0
  C  C48  1  0.42339000  0.78433000  0.12119000  1.0
  C  C49  1  0.58602000  0.36244000  0.23269000  1.0
  C  C50  1  0.56052000  0.42556000  0.26261000  1.0
  C  C51  1  0.53451000  0.31615000  0.20772000  1.0
  C  C52  1  0.56474000  0.27792000  0.15240000  1.0
  C  C53  1  0.51876000  0.27653000  0.26948000  1.0
  C  C54  1  0.48484000  0.21230000  0.25506000  1.0
  C  C55  1  0.58335000  0.27353000  0.30599000  1.0
  C  C56  1  0.57661000  0.28433000  0.37881000  1.0
  C  C57  1  0.08602000  0.13756000  0.76732000  1.0
  C  C58  1  0.06052000  0.07444000  0.73739000  1.0
  C  C59  1  0.03451000  0.18385000  0.79228000  1.0
  C  C60  1  0.06474000  0.22208000  0.84760000  1.0
  C  C61  1  0.01876000  0.22347000  0.73052000  1.0
  C  C62  1  0.98484000  0.28770000  0.74494000  1.0
  C  C63  1  0.08335000  0.22647000  0.69401000  1.0
  C  C64  1  0.07661000  0.21567000  0.62119000  1.0
  C  C65  1  0.73269000  0.91398000  0.63756000  1.0
  C  C66  1  0.76261000  0.93948000  0.57444000  1.0
  C  C67  1  0.70772000  0.96549000  0.68385000  1.0
  C  C68  1  0.65240000  0.93526000  0.72208000  1.0
  C  C69  1  0.76948000  0.98124000  0.72347000  1.0
  C  C70  1  0.75506000  0.01516000  0.78770000  1.0
  C  C71  1  0.80599000  0.91665000  0.72647000  1.0
  C  C72  1  0.87881000  0.92339000  0.71567000  1.0
  C  C73  1  0.26732000  0.41398000  0.86244000  1.0
  C  C74  1  0.23739000  0.43948000  0.92557000  1.0
  C  C75  1  0.29228000  0.46549000  0.81615000  1.0
  C  C76  1  0.34760000  0.43526000  0.77792000  1.0
  C  C77  1  0.23052000  0.48124000  0.77653000  1.0
  C  C78  1  0.24494000  0.51516000  0.71230000  1.0
  C  C79  1  0.19401000  0.41665000  0.77353000  1.0
  C  C80  1  0.12119000  0.42339000  0.78433000  1.0
  C  C81  1  0.23269000  0.58602000  0.36244000  1.0
  C  C82  1  0.26261000  0.56052000  0.42556000  1.0
  C  C83  1  0.20772000  0.53451000  0.31615000  1.0
  C  C84  1  0.15240000  0.56474000  0.27792000  1.0
  C  C85  1  0.26948000  0.51876000  0.27653000  1.0
  C  C86  1  0.25506000  0.48484000  0.21230000  1.0
  C  C87  1  0.30599000  0.58335000  0.27353000  1.0
  C  C88  1  0.37881000  0.57661000  0.28433000  1.0
  C  C89  1  0.76732000  0.08602000  0.13756000  1.0
  C  C90  1  0.73739000  0.06052000  0.07444000  1.0
  C  C91  1  0.79228000  0.03451000  0.18385000  1.0
  C  C92  1  0.84760000  0.06474000  0.22208000  1.0
  C  C93  1  0.73052000  0.01876000  0.22347000  1.0
  C  C94  1  0.74494000  0.98484000  0.28770000  1.0
  C  C95  1  0.69401000  0.08335000  0.22647000  1.0
  C  C96  1  0.62119000  0.07661000  0.21567000  1.0
  C  C97  1  0.36244000  0.26732000  0.08602000  1.0
  C  C98  1  0.42556000  0.23739000  0.06052000  1.0
  C  C99  1  0.31615000  0.29228000  0.03451000  1.0
  C  C100  1  0.27792000  0.34760000  0.06474000  1.0
  C  C101  1  0.27653000  0.23052000  0.01876000  1.0
  C  C102  1  0.21230000  0.24494000  0.98484000  1.0
  C  C103  1  0.27353000  0.19401000  0.08335000  1.0
  C  C104  1  0.28433000  0.12119000  0.07661000  1.0
  C  C105  1  0.13756000  0.73269000  0.58602000  1.0
  C  C106  1  0.07444000  0.76261000  0.56052000  1.0
  C  C107  1  0.18385000  0.70772000  0.53451000  1.0
  C  C108  1  0.22208000  0.65240000  0.56474000  1.0
  C  C109  1  0.22347000  0.76948000  0.51876000  1.0
  C  C110  1  0.28770000  0.75506000  0.48484000  1.0
  C  C111  1  0.22647000  0.80599000  0.58335000  1.0
  C  C112  1  0.21567000  0.87881000  0.57661000  1.0
  C  C113  1  0.63756000  0.76732000  0.41398000  1.0
  C  C114  1  0.57444000  0.73739000  0.43948000  1.0
  C  C115  1  0.68385000  0.79228000  0.46549000  1.0
  C  C116  1  0.72208000  0.84760000  0.43526000  1.0
  C  C117  1  0.72347000  0.73052000  0.48124000  1.0
  C  C118  1  0.78770000  0.74494000  0.51516000  1.0
  C  C119  1  0.72647000  0.69401000  0.41665000  1.0
  C  C120  1  0.71567000  0.62119000  0.42339000  1.0
  C  C121  1  0.86244000  0.23269000  0.91398000  1.0
  C  C122  1  0.92557000  0.26261000  0.93948000  1.0
  C  C123  1  0.81615000  0.20772000  0.96549000  1.0
  C  C124  1  0.77792000  0.15240000  0.93526000  1.0
  C  C125  1  0.77653000  0.26948000  0.98124000  1.0
  C  C126  1  0.71230000  0.25506000  0.01516000  1.0
  C  C127  1  0.77353000  0.30599000  0.91665000  1.0
  C  C128  1  0.78433000  0.37881000  0.92339000  1.0
  C  C129  1  0.08602000  0.36244000  0.26732000  1.0
  C  C130  1  0.06052000  0.42556000  0.23739000  1.0
  C  C131  1  0.03451000  0.31615000  0.29228000  1.0
  C  C132  1  0.06474000  0.27792000  0.34760000  1.0
  C  C133  1  0.01876000  0.27653000  0.23052000  1.0
  C  C134  1  0.98484000  0.21230000  0.24494000  1.0
  C  C135  1  0.08335000  0.27353000  0.19401000  1.0
  C  C136  1  0.07661000  0.28433000  0.12119000  1.0
  C  C137  1  0.58602000  0.13756000  0.73269000  1.0
  C  C138  1  0.56052000  0.07444000  0.76261000  1.0
  C  C139  1  0.53451000  0.18385000  0.70772000  1.0
  C  C140  1  0.56474000  0.22208000  0.65240000  1.0
  C  C141  1  0.51876000  0.22347000  0.76948000  1.0
  C  C142  1  0.48484000  0.28770000  0.75506000  1.0
  C  C143  1  0.58335000  0.22647000  0.80599000  1.0
  C  C144  1  0.57661000  0.21567000  0.87881000  1.0
  C  C145  1  0.41398000  0.63756000  0.76732000  1.0
  C  C146  1  0.43948000  0.57444000  0.73739000  1.0
  C  C147  1  0.46549000  0.68385000  0.79228000  1.0
  C  C148  1  0.43526000  0.72208000  0.84760000  1.0
  C  C149  1  0.48124000  0.72347000  0.73052000  1.0
  C  C150  1  0.51516000  0.78770000  0.74494000  1.0
  C  C151  1  0.41665000  0.72647000  0.69401000  1.0
  C  C152  1  0.42339000  0.71567000  0.62119000  1.0
  C  C153  1  0.91398000  0.86244000  0.23269000  1.0
  C  C154  1  0.93948000  0.92557000  0.26261000  1.0
  C  C155  1  0.96549000  0.81615000  0.20772000  1.0
  C  C156  1  0.93526000  0.77792000  0.15240000  1.0
  C  C157  1  0.98124000  0.77653000  0.26948000  1.0
  C  C158  1  0.01516000  0.71230000  0.25506000  1.0
  C  C159  1  0.91665000  0.77353000  0.30599000  1.0
  C  C160  1  0.92339000  0.78433000  0.37881000  1.0
  C  C161  1  0.26732000  0.08602000  0.36244000  1.0
  C  C162  1  0.23739000  0.06052000  0.42556000  1.0
  C  C163  1  0.29228000  0.03451000  0.31615000  1.0
  C  C164  1  0.34760000  0.06474000  0.27792000  1.0
  C  C165  1  0.23052000  0.01876000  0.27653000  1.0
  C  C166  1  0.24494000  0.98484000  0.21230000  1.0
  C  C167  1  0.19401000  0.08335000  0.27353000  1.0
  C  C168  1  0.12119000  0.07661000  0.28433000  1.0
  C  C169  1  0.73269000  0.58602000  0.13756000  1.0
  C  C170  1  0.76261000  0.56052000  0.07444000  1.0
  C  C171  1  0.70772000  0.53451000  0.18385000  1.0
  C  C172  1  0.65240000  0.56474000  0.22208000  1.0
  C  C173  1  0.76948000  0.51876000  0.22347000  1.0
  C  C174  1  0.75506000  0.48484000  0.28770000  1.0
  C  C175  1  0.80599000  0.58335000  0.22647000  1.0
  C  C176  1  0.87881000  0.57661000  0.21567000  1.0
  C  C177  1  0.76732000  0.41398000  0.63756000  1.0
  C  C178  1  0.73739000  0.43948000  0.57444000  1.0
  C  C179  1  0.79228000  0.46549000  0.68385000  1.0
  C  C180  1  0.84760000  0.43526000  0.72208000  1.0
  C  C181  1  0.73052000  0.48124000  0.72347000  1.0
  C  C182  1  0.74494000  0.51516000  0.78770000  1.0
  C  C183  1  0.69401000  0.41665000  0.72647000  1.0
  C  C184  1  0.62119000  0.42339000  0.71567000  1.0
  C  C185  1  0.23269000  0.91398000  0.86244000  1.0
  C  C186  1  0.26261000  0.93948000  0.92557000  1.0
  C  C187  1  0.20772000  0.96549000  0.81615000  1.0
  C  C188  1  0.15240000  0.93526000  0.77792000  1.0
  C  C189  1  0.26948000  0.98124000  0.77653000  1.0
  C  C190  1  0.25506000  0.01516000  0.71230000  1.0
  C  C191  1  0.30599000  0.91665000  0.77353000  1.0
  C  C192  1  0.37881000  0.92339000  0.78433000  1.0
  O  O1  1  0.67570000  0.77799000  0.87639000  1.0
  O  O2  1  0.55476000  0.81074000  0.90583000  1.0
  O  O3  1  0.54548000  0.73743000  0.98609000  1.0
  O  O4  1  0.70140000  0.59579000  0.94519000  1.0
  O  O5  1  0.76985000  0.66895000  0.90008000  1.0
  O  O6  1  0.77933000  0.72475000  0.06844000  1.0
  O  O7  1  0.84039000  0.77205000  0.99021000  1.0
  O  O8  1  0.75945000  0.91249000  0.94846000  1.0
  O  O9  1  0.66131000  0.89986000  0.90287000  1.0
  O  O10  1  0.54212000  0.92532000  0.84366000  1.0
  O  O11  1  0.82430000  0.22201000  0.37639000  1.0
  O  O12  1  0.94524000  0.18926000  0.40583000  1.0
  O  O13  1  0.95452000  0.26257000  0.48609000  1.0
  O  O14  1  0.79860000  0.40421000  0.44519000  1.0
  O  O15  1  0.73015000  0.33105000  0.40008000  1.0
  O  O16  1  0.72067000  0.27525000  0.56844000  1.0
  O  O17  1  0.65961000  0.22795000  0.49021000  1.0
  O  O18  1  0.74055000  0.08751000  0.44846000  1.0
  O  O19  1  0.83869000  0.10014000  0.40287000  1.0
  O  O20  1  0.95788000  0.07468000  0.34366000  1.0
  O  O21  1  0.32430000  0.27799000  0.62361000  1.0
  O  O22  1  0.44524000  0.31074000  0.59417000  1.0
  O  O23  1  0.45452000  0.23743000  0.51391000  1.0
  O  O24  1  0.29860000  0.09579000  0.55481000  1.0
  O  O25  1  0.23015000  0.16895000  0.59992000  1.0
  O  O26  1  0.22067000  0.22475000  0.43156000  1.0
  O  O27  1  0.15961000  0.27205000  0.50979000  1.0
  O  O28  1  0.24055000  0.41249000  0.55154000  1.0
  O  O29  1  0.33869000  0.39986000  0.59713000  1.0
  O  O30  1  0.45788000  0.42532000  0.65634000  1.0
  O  O31  1  0.17570000  0.72201000  0.12361000  1.0
  O  O32  1  0.05476000  0.68926000  0.09417000  1.0
  O  O33  1  0.04548000  0.76257000  0.01391000  1.0
  O  O34  1  0.20140000  0.90422000  0.05481000  1.0
  O  O35  1  0.26985000  0.83105000  0.09992000  1.0
  O  O36  1  0.27933000  0.77525000  0.93156000  1.0
  O  O37  1  0.34039000  0.72795000  0.00979000  1.0
  O  O38  1  0.25945000  0.58751000  0.05154000  1.0
  O  O39  1  0.16131000  0.60014000  0.09713000  1.0
  O  O40  1  0.04212000  0.57468000  0.15634000  1.0
  O  O41  1  0.87639000  0.67570000  0.77799000  1.0
  O  O42  1  0.90583000  0.55476000  0.81074000  1.0
  O  O43  1  0.98609000  0.54548000  0.73743000  1.0
  O  O44  1  0.94519000  0.70140000  0.59579000  1.0
  O  O45  1  0.90008000  0.76985000  0.66895000  1.0
  O  O46  1  0.06844000  0.77933000  0.72475000  1.0
  O  O47  1  0.99021000  0.84039000  0.77205000  1.0
  O  O48  1  0.94846000  0.75945000  0.91249000  1.0
  O  O49  1  0.90287000  0.66131000  0.89986000  1.0
  O  O50  1  0.84366000  0.54212000  0.92532000  1.0
  O  O51  1  0.37639000  0.82430000  0.22201000  1.0
  O  O52  1  0.40583000  0.94524000  0.18926000  1.0
  O  O53  1  0.48609000  0.95452000  0.26257000  1.0
  O  O54  1  0.44519000  0.79860000  0.40422000  1.0
  O  O55  1  0.40008000  0.73015000  0.33105000  1.0
  O  O56  1  0.56844000  0.72067000  0.27525000  1.0
  O  O57  1  0.49021000  0.65961000  0.22795000  1.0
  O  O58  1  0.44846000  0.74055000  0.08751000  1.0
  O  O59  1  0.40287000  0.83869000  0.10014000  1.0
  O  O60  1  0.34366000  0.95788000  0.07468000  1.0
  O  O61  1  0.62361000  0.32430000  0.27799000  1.0
  O  O62  1  0.59417000  0.44524000  0.31074000  1.0
  O  O63  1  0.51391000  0.45452000  0.23743000  1.0
  O  O64  1  0.55481000  0.29860000  0.09579000  1.0
  O  O65  1  0.59992000  0.23015000  0.16895000  1.0
  O  O66  1  0.43156000  0.22067000  0.22475000  1.0
  O  O67  1  0.50979000  0.15961000  0.27205000  1.0
  O  O68  1  0.55154000  0.24055000  0.41249000  1.0
  O  O69  1  0.59713000  0.33869000  0.39986000  1.0
  O  O70  1  0.65634000  0.45788000  0.42532000  1.0
  O  O71  1  0.12361000  0.17570000  0.72201000  1.0
  O  O72  1  0.09417000  0.05476000  0.68926000  1.0
  O  O73  1  0.01391000  0.04548000  0.76257000  1.0
  O  O74  1  0.05481000  0.20140000  0.90422000  1.0
  O  O75  1  0.09992000  0.26985000  0.83105000  1.0
  O  O76  1  0.93156000  0.27933000  0.77525000  1.0
  O  O77  1  0.00979000  0.34039000  0.72795000  1.0
  O  O78  1  0.05154000  0.25945000  0.58751000  1.0
  O  O79  1  0.09713000  0.16131000  0.60014000  1.0
  O  O80  1  0.15634000  0.04212000  0.57468000  1.0
  O  O81  1  0.77799000  0.87639000  0.67570000  1.0
  O  O82  1  0.81074000  0.90583000  0.55476000  1.0
  O  O83  1  0.73743000  0.98609000  0.54548000  1.0
  O  O84  1  0.59579000  0.94519000  0.70140000  1.0
  O  O85  1  0.66895000  0.90008000  0.76985000  1.0
  O  O86  1  0.72475000  0.06844000  0.77933000  1.0
  O  O87  1  0.77205000  0.99021000  0.84039000  1.0
  O  O88  1  0.91249000  0.94846000  0.75945000  1.0
  O  O89  1  0.89986000  0.90287000  0.66131000  1.0
  O  O90  1  0.92532000  0.84366000  0.54212000  1.0
  O  O91  1  0.22201000  0.37639000  0.82430000  1.0
  O  O92  1  0.18926000  0.40583000  0.94524000  1.0
  O  O93  1  0.26257000  0.48609000  0.95452000  1.0
  O  O94  1  0.40421000  0.44519000  0.79860000  1.0
  O  O95  1  0.33105000  0.40008000  0.73015000  1.0
  O  O96  1  0.27525000  0.56844000  0.72067000  1.0
  O  O97  1  0.22795000  0.49021000  0.65961000  1.0
  O  O98  1  0.08751000  0.44846000  0.74055000  1.0
  O  O99  1  0.10014000  0.40287000  0.83869000  1.0
  O  O100  1  0.07468000  0.34366000  0.95788000  1.0
  O  O101  1  0.27799000  0.62361000  0.32430000  1.0
  O  O102  1  0.31074000  0.59417000  0.44524000  1.0
  O  O103  1  0.23743000  0.51391000  0.45452000  1.0
  O  O104  1  0.09579000  0.55481000  0.29860000  1.0
  O  O105  1  0.16895000  0.59992000  0.23015000  1.0
  O  O106  1  0.22475000  0.43156000  0.22067000  1.0
  O  O107  1  0.27205000  0.50979000  0.15961000  1.0
  O  O108  1  0.41249000  0.55154000  0.24055000  1.0
  O  O109  1  0.39986000  0.59713000  0.33869000  1.0
  O  O110  1  0.42532000  0.65634000  0.45788000  1.0
  O  O111  1  0.72201000  0.12361000  0.17570000  1.0
  O  O112  1  0.68926000  0.09417000  0.05476000  1.0
  O  O113  1  0.76257000  0.01391000  0.04548000  1.0
  O  O114  1  0.90422000  0.05481000  0.20140000  1.0
  O  O115  1  0.83105000  0.09992000  0.26985000  1.0
  O  O116  1  0.77525000  0.93156000  0.27933000  1.0
  O  O117  1  0.72795000  0.00979000  0.34039000  1.0
  O  O118  1  0.58751000  0.05154000  0.25945000  1.0
  O  O119  1  0.60014000  0.09713000  0.16131000  1.0
  O  O120  1  0.57468000  0.15634000  0.04212000  1.0
  O  O121  1  0.32430000  0.22201000  0.12361000  1.0
  O  O122  1  0.44524000  0.18926000  0.09417000  1.0
  O  O123  1  0.45452000  0.26257000  0.01391000  1.0
  O  O124  1  0.29860000  0.40421000  0.05481000  1.0
  O  O125  1  0.23015000  0.33105000  0.09992000  1.0
  O  O126  1  0.22067000  0.27525000  0.93156000  1.0
  O  O127  1  0.15961000  0.22795000  0.00979000  1.0
  O  O128  1  0.24055000  0.08751000  0.05154000  1.0
  O  O129  1  0.33869000  0.10014000  0.09713000  1.0
  O  O130  1  0.45788000  0.07468000  0.15634000  1.0
  O  O131  1  0.17570000  0.77799000  0.62361000  1.0
  O  O132  1  0.05476000  0.81074000  0.59417000  1.0
  O  O133  1  0.04548000  0.73743000  0.51391000  1.0
  O  O134  1  0.20140000  0.59579000  0.55481000  1.0
  O  O135  1  0.26985000  0.66895000  0.59992000  1.0
  O  O136  1  0.27933000  0.72475000  0.43156000  1.0
  O  O137  1  0.34039000  0.77205000  0.50979000  1.0
  O  O138  1  0.25945000  0.91249000  0.55154000  1.0
  O  O139  1  0.16131000  0.89986000  0.59713000  1.0
  O  O140  1  0.04212000  0.92532000  0.65634000  1.0
  O  O141  1  0.67570000  0.72201000  0.37639000  1.0
  O  O142  1  0.55476000  0.68926000  0.40583000  1.0
  O  O143  1  0.54548000  0.76257000  0.48609000  1.0
  O  O144  1  0.70140000  0.90422000  0.44519000  1.0
  O  O145  1  0.76985000  0.83105000  0.40008000  1.0
  O  O146  1  0.77933000  0.77525000  0.56844000  1.0
  O  O147  1  0.84039000  0.72795000  0.49021000  1.0
  O  O148  1  0.75945000  0.58751000  0.44846000  1.0
  O  O149  1  0.66131000  0.60014000  0.40287000  1.0
  O  O150  1  0.54212000  0.57468000  0.34366000  1.0
  O  O151  1  0.82430000  0.27799000  0.87639000  1.0
  O  O152  1  0.94524000  0.31074000  0.90583000  1.0
  O  O153  1  0.95452000  0.23743000  0.98609000  1.0
  O  O154  1  0.79860000  0.09579000  0.94519000  1.0
  O  O155  1  0.73015000  0.16895000  0.90008000  1.0
  O  O156  1  0.72067000  0.22475000  0.06844000  1.0
  O  O157  1  0.65961000  0.27205000  0.99021000  1.0
  O  O158  1  0.74055000  0.41249000  0.94846000  1.0
  O  O159  1  0.83869000  0.39986000  0.90287000  1.0
  O  O160  1  0.95788000  0.42532000  0.84366000  1.0
  O  O161  1  0.12361000  0.32430000  0.22201000  1.0
  O  O162  1  0.09417000  0.44524000  0.18926000  1.0
  O  O163  1  0.01391000  0.45452000  0.26257000  1.0
  O  O164  1  0.05481000  0.29860000  0.40422000  1.0
  O  O165  1  0.09992000  0.23015000  0.33105000  1.0
  O  O166  1  0.93156000  0.22067000  0.27525000  1.0
  O  O167  1  0.00979000  0.15961000  0.22795000  1.0
  O  O168  1  0.05154000  0.24055000  0.08751000  1.0
  O  O169  1  0.09713000  0.33869000  0.10014000  1.0
  O  O170  1  0.15634000  0.45788000  0.07468000  1.0
  O  O171  1  0.62361000  0.17570000  0.77799000  1.0
  O  O172  1  0.59417000  0.05476000  0.81074000  1.0
  O  O173  1  0.51391000  0.04548000  0.73743000  1.0
  O  O174  1  0.55481000  0.20140000  0.59579000  1.0
  O  O175  1  0.59992000  0.26985000  0.66895000  1.0
  O  O176  1  0.43156000  0.27933000  0.72475000  1.0
  O  O177  1  0.50979000  0.34039000  0.77205000  1.0
  O  O178  1  0.55154000  0.25945000  0.91249000  1.0
  O  O179  1  0.59713000  0.16131000  0.89986000  1.0
  O  O180  1  0.65634000  0.04212000  0.92532000  1.0
  O  O181  1  0.37639000  0.67570000  0.72201000  1.0
  O  O182  1  0.40583000  0.55476000  0.68926000  1.0
  O  O183  1  0.48609000  0.54548000  0.76257000  1.0
  O  O184  1  0.44519000  0.70140000  0.90422000  1.0
  O  O185  1  0.40008000  0.76985000  0.83105000  1.0
  O  O186  1  0.56844000  0.77933000  0.77525000  1.0
  O  O187  1  0.49021000  0.84039000  0.72795000  1.0
  O  O188  1  0.44846000  0.75945000  0.58751000  1.0
  O  O189  1  0.40287000  0.66131000  0.60014000  1.0
  O  O190  1  0.34366000  0.54212000  0.57468000  1.0
  O  O191  1  0.87639000  0.82430000  0.27799000  1.0
  O  O192  1  0.90583000  0.94524000  0.31074000  1.0
  O  O193  1  0.98609000  0.95452000  0.23743000  1.0
  O  O194  1  0.94519000  0.79860000  0.09579000  1.0
  O  O195  1  0.90008000  0.73015000  0.16895000  1.0
  O  O196  1  0.06844000  0.72067000  0.22475000  1.0
  O  O197  1  0.99021000  0.65961000  0.27205000  1.0
  O  O198  1  0.94846000  0.74055000  0.41249000  1.0
  O  O199  1  0.90287000  0.83869000  0.39986000  1.0
  O  O200  1  0.84366000  0.95788000  0.42532000  1.0
  O  O201  1  0.22201000  0.12361000  0.32430000  1.0
  O  O202  1  0.18926000  0.09417000  0.44524000  1.0
  O  O203  1  0.26257000  0.01391000  0.45452000  1.0
  O  O204  1  0.40421000  0.05481000  0.29860000  1.0
  O  O205  1  0.33105000  0.09992000  0.23015000  1.0
  O  O206  1  0.27525000  0.93156000  0.22067000  1.0
  O  O207  1  0.22795000  0.00979000  0.15961000  1.0
  O  O208  1  0.08751000  0.05154000  0.24055000  1.0
  O  O209  1  0.10014000  0.09713000  0.33869000  1.0
  O  O210  1  0.07468000  0.15634000  0.45788000  1.0
  O  O211  1  0.77799000  0.62361000  0.17570000  1.0
  O  O212  1  0.81074000  0.59417000  0.05476000  1.0
  O  O213  1  0.73743000  0.51391000  0.04548000  1.0
  O  O214  1  0.59579000  0.55481000  0.20140000  1.0
  O  O215  1  0.66895000  0.59992000  0.26985000  1.0
  O  O216  1  0.72475000  0.43156000  0.27933000  1.0
  O  O217  1  0.77205000  0.50979000  0.34039000  1.0
  O  O218  1  0.91249000  0.55154000  0.25945000  1.0
  O  O219  1  0.89986000  0.59713000  0.16131000  1.0
  O  O220  1  0.92532000  0.65634000  0.04212000  1.0
  O  O221  1  0.72201000  0.37639000  0.67570000  1.0
  O  O222  1  0.68926000  0.40583000  0.55476000  1.0
  O  O223  1  0.76257000  0.48609000  0.54548000  1.0
  O  O224  1  0.90422000  0.44519000  0.70140000  1.0
  O  O225  1  0.83105000  0.40008000  0.76985000  1.0
  O  O226  1  0.77525000  0.56844000  0.77933000  1.0
  O  O227  1  0.72795000  0.49021000  0.84039000  1.0
  O  O228  1  0.58751000  0.44846000  0.75945000  1.0
  O  O229  1  0.60014000  0.40287000  0.66131000  1.0
  O  O230  1  0.57468000  0.34366000  0.54212000  1.0
  O  O231  1  0.27799000  0.87639000  0.82430000  1.0
  O  O232  1  0.31074000  0.90583000  0.94524000  1.0
  O  O233  1  0.23743000  0.98609000  0.95452000  1.0
  O  O234  1  0.09579000  0.94519000  0.79860000  1.0
  O  O235  1  0.16895000  0.90008000  0.73015000  1.0
  O  O236  1  0.22475000  0.06844000  0.72067000  1.0
  O  O237  1  0.27205000  0.99021000  0.65961000  1.0
  O  O238  1  0.41249000  0.94846000  0.74055000  1.0
  O  O239  1  0.39986000  0.90287000  0.83869000  1.0
  O  O240  1  0.42532000  0.84366000  0.95788000  1.0
