# generated using pymatgen
data_Zn2H9C36N6Cl5O8
_symmetry_space_group_name_H-M   'P 1'
_cell_length_a   9.89887000
_cell_length_b   10.75645795
_cell_length_c   10.80293520
_cell_angle_alpha   92.34191539
_cell_angle_beta   92.44798616
_cell_angle_gamma   91.47675910
_symmetry_Int_Tables_number   1
_chemical_formula_structural   Zn2H9C36N6Cl5O8
_chemical_formula_sum   'Zn2 H9 C36 N6 Cl5 O8'
_cell_volume   1147.81584528
_cell_formula_units_Z   1
loop_
 _symmetry_equiv_pos_site_id
 _symmetry_equiv_pos_as_xyz
  1  'x, y, z'
loop_
 _atom_site_type_symbol
 _atom_site_label
 _atom_site_symmetry_multiplicity
 _atom_site_fract_x
 _atom_site_fract_y
 _atom_site_fract_z
 _atom_site_occupancy
  C  C0  1  0.50157500  0.73878500  0.48674500  1
  C  C1  1  0.50153000  0.48493000  0.73809000  1
  C  C2  1  0.62078000  0.50119500  0.93800500  1
  C  C3  1  0.61831500  0.93832500  0.52494500  1
  C  C4  1  0.61812000  0.51996000  0.06409000  1
  C  C5  1  0.61198000  0.06450000  0.54710000  1
  C  C6  1  0.49380500  0.50703000  0.12382000  1
  C  C7  1  0.49182500  0.12534000  0.51462000  1
  C  C8  1  0.89026500  0.63691500  0.70293500  1
  C  C9  1  0.98511000  0.67051500  0.80333500  1
  C  C10  1  0.12353500  0.66936000  0.78252000  1
  C  C11  1  0.15837500  0.65852000  0.66086000  1
  C  C12  1  0.08039000  0.57564500  0.58361500  1
  C  C13  1  0.93670000  0.57099000  0.59257000  1
  C  C14  1  0.92178000  0.43039000  0.41599000  1
  C  C15  1  0.49784500  0.25968000  0.50726000  1
  C  C16  1  0.49758000  0.50450500  0.25899500  1
  C  C17  1  0.06487000  0.42803000  0.41779000  1
  C  C18  1  0.27328000  0.36556500  0.86917500  1
  C  C19  1  0.29807500  0.87756500  0.33645500  1
  C  C20  1  0.14484500  0.37255000  0.91642000  1
  C  C21  1  0.17053000  0.92803500  0.32030500  1
  C  C22  1  0.12697500  0.44186500  0.02514500  1
  C  C23  1  0.13951500  0.03436000  0.38929000  1
  C  C24  1  0.23939000  0.49133500  0.09419500  1
  C  C25  1  0.24142500  0.09914000  0.46053000  1
  C  C26  1  0.37215000  0.47798500  0.05151500  1
  C  C27  1  0.37536000  0.05498500  0.46740500  1
  C  C28  1  0.38394500  0.43384000  0.92870000  1
  C  C29  1  0.39430000  0.93312000  0.42342000  1
  C  C30  1  0.50413000  0.46390833  0.86939833  1
  C  C31  1  0.50767000  0.87135500  0.46991500  1
  C  C32  1  0.22391000  0.72259000  0.87191000  1
  C  C33  1  0.12784000  0.34733500  0.32975500  1
  C  C34  1  0.76346500  0.69772500  0.71520500  1
  C  C35  1  0.94331000  0.73111500  0.91777500  1
  Cl  Cl36  1  0.17617500  0.80829500  0.60323500  1
  Cl  Cl37  1  0.29671500  0.25050500  0.75315500  1
  Cl  Cl38  1  0.34451000  0.76340500  0.22888500  1
  Cl  Cl39  1  0.77454000  0.56893000  0.13792000  1
  Cl  Cl40  1  0.75347500  0.13829000  0.62765000  1
  H  H41  1  0.71444000  0.52015500  0.89320500  1
  H  H42  1  0.70908500  0.89233500  0.55511500  1
  H  H43  1  0.05924500  0.32326000  0.86965000  1
  H  H44  1  0.09560500  0.88459000  0.25525000  1
  H  H45  1  0.02675500  0.45108000  0.06001000  1
  H  H46  1  0.03841000  0.07032500  0.38279500  1
  H  H47  1  0.21773000  0.54181000  0.17852000  1
  H  H48  1  0.21086500  0.18062000  0.51184000  1
  H  H49  1  0.86208000  0.37344500  0.34791500  1
  N  N50  1  0.85722000  0.50119000  0.50119000  1
  N  N51  1  0.14283000  0.50126000  0.50126000  1
  N  N52  1  0.30522500  0.76595000  0.94188000  1
  N  N53  1  0.17787500  0.28176500  0.25865500  1
  N  N54  1  0.66524500  0.74979500  0.73533500  1
  N  N55  1  0.91150500  0.78192000  0.00796000  1
  O  O56  1  0.38531000  0.68323000  0.49999000  1
  O  O57  1  0.38531000  0.49999000  0.68323000  1
  O  O58  1  0.61464000  0.68325000  0.50001000  1
  O  O59  1  0.61464000  0.50001000  0.68325000  1
  O  O60  1  0.38536000  0.31677000  0.49999000  1
  O  O61  1  0.38536000  0.49999000  0.31677000  1
  O  O62  1  0.61469000  0.31678000  0.50000000  1
  O  O63  1  0.61469000  0.50000000  0.31678000  1
  Zn  Zn64  1  0.34687000  0.49999000  0.49999000  1
  Zn  Zn65  1  0.65313000  0.50002000  0.50002000  1
