# generated using pymatgen
data_ZnH5C7NO3
_symmetry_space_group_name_H-M   'P 1'
_cell_length_a   4.97969000
_cell_length_b   16.98433000
_cell_length_c   17.17305000
_cell_angle_alpha   89.99955000
_cell_angle_beta   90.00000000
_cell_angle_gamma   90.00000000
_symmetry_Int_Tables_number   1
_chemical_formula_structural   ZnH5C7NO3
_chemical_formula_sum   'Zn8 H40 C56 N8 O24'
_cell_volume   1452.43986797
_cell_formula_units_Z   8
loop_
 _symmetry_equiv_pos_site_id
 _symmetry_equiv_pos_as_xyz
  1  'x, y, z'
loop_
 _atom_site_type_symbol
 _atom_site_label
 _atom_site_symmetry_multiplicity
 _atom_site_fract_x
 _atom_site_fract_y
 _atom_site_fract_z
 _atom_site_occupancy
  Zn  Zn0  1  0.88513000  0.91085000  0.65476000  1
  Zn  Zn1  1  0.38223000  0.83592000  0.58379000  1
  Zn  Zn2  1  0.88513000  0.08915000  0.34525000  1
  Zn  Zn3  1  0.38223000  0.16408000  0.41621000  1
  Zn  Zn4  1  0.88513000  0.41085000  0.84525000  1
  Zn  Zn5  1  0.38223000  0.33593000  0.91621000  1
  Zn  Zn6  1  0.88513000  0.58915000  0.15476000  1
  Zn  Zn7  1  0.38223000  0.66408000  0.08379000  1
  H  H8  1  0.34303000  0.05720000  0.58284000  1
  H  H9  1  0.54141000  0.00479000  0.64968000  1
  H  H10  1  0.44656000  0.14917000  0.71974000  1
  H  H11  1  0.75264000  0.13121000  0.86741000  1
  H  H12  1  0.62586000  0.00535000  0.79421000  1
  H  H13  1  0.03654000  0.84732000  0.48962000  1
  H  H14  1  0.84430000  0.91944000  0.44198000  1
  H  H15  1  0.94033000  0.78891000  0.34204000  1
  H  H16  1  0.24631000  0.63853000  0.34956000  1
  H  H17  1  0.11993000  0.70342000  0.47880000  1
  H  H18  1  0.34303000  0.94281000  0.41717000  1
  H  H19  1  0.54141000  0.99522000  0.35032000  1
  H  H20  1  0.44656000  0.85084000  0.28026000  1
  H  H21  1  0.75264000  0.86880000  0.13259000  1
  H  H22  1  0.62586000  0.99466000  0.20580000  1
  H  H23  1  0.03654000  0.15268000  0.51038000  1
  H  H24  1  0.84430000  0.08057000  0.55802000  1
  H  H25  1  0.94033000  0.21109000  0.65796000  1
  H  H26  1  0.24631000  0.36148000  0.65044000  1
  H  H27  1  0.11993000  0.29658000  0.52121000  1
  H  H28  1  0.34302000  0.55721000  0.91716000  1
  H  H29  1  0.54141000  0.50480000  0.85032000  1
  H  H30  1  0.44656000  0.64918000  0.78024000  1
  H  H31  1  0.75265000  0.63121000  0.63258000  1
  H  H32  1  0.62584000  0.50535000  0.70580000  1
  H  H33  1  0.03653000  0.34732000  0.01037000  1
  H  H34  1  0.84428000  0.41943000  0.05801000  1
  H  H35  1  0.94031000  0.28892000  0.15795000  1
  H  H36  1  0.24630000  0.13853000  0.15045000  1
  H  H37  1  0.11993000  0.20341000  0.02120000  1
  H  H38  1  0.34302000  0.44280000  0.08284000  1
  H  H39  1  0.54141000  0.49521000  0.14969000  1
  H  H40  1  0.44656000  0.35083000  0.21977000  1
  H  H41  1  0.75265000  0.36880000  0.36743000  1
  H  H42  1  0.62584000  0.49465000  0.29421000  1
  H  H43  1  0.03653000  0.65269000  0.98963000  1
  H  H44  1  0.84428000  0.58057000  0.94199000  1
  H  H45  1  0.94031000  0.71109000  0.84205000  1
  H  H46  1  0.24630000  0.86148000  0.84956000  1
  H  H47  1  0.11993000  0.79660000  0.97880000  1
  C  C48  1  0.32961000  0.01321000  0.63012000  1
  C  C49  1  0.17851000  0.04991000  0.69826000  1
  C  C50  1  0.27118000  0.11672000  0.73915000  1
  C  C51  1  0.11703000  0.14447000  0.80186000  1
  C  C52  1  0.87715000  0.10679000  0.82134000  1
  C  C53  1  0.79859000  0.04123000  0.77925000  1
  C  C54  1  0.19326000  0.21541000  0.84832000  1
  C  C55  1  0.82602000  0.86872000  0.48197000  1
  C  C56  1  0.67224000  0.80328000  0.44127000  1
  C  C57  1  0.76490000  0.76681000  0.37254000  1
  C  C58  1  0.61196000  0.70514000  0.34108000  1
  C  C59  1  0.37127000  0.68325000  0.37675000  1
  C  C60  1  0.29244000  0.72122000  0.44439000  1
  C  C61  1  0.69568000  0.66191000  0.26947000  1
  C  C62  1  0.32961000  0.98679000  0.36989000  1
  C  C63  1  0.17851000  0.95009000  0.30174000  1
  C  C64  1  0.27118000  0.88329000  0.26086000  1
  C  C65  1  0.11703000  0.85553000  0.19815000  1
  C  C66  1  0.87715000  0.89322000  0.17867000  1
  C  C67  1  0.79859000  0.95878000  0.22075000  1
  C  C68  1  0.19326000  0.78460000  0.15169000  1
  C  C69  1  0.82602000  0.13129000  0.51804000  1
  C  C70  1  0.67224000  0.19673000  0.55873000  1
  C  C71  1  0.76490000  0.23319000  0.62746000  1
  C  C72  1  0.61196000  0.29487000  0.65892000  1
  C  C73  1  0.37127000  0.31676000  0.62325000  1
  C  C74  1  0.29244000  0.27879000  0.55561000  1
  C  C75  1  0.69568000  0.33810000  0.73053000  1
  C  C76  1  0.32960000  0.51322000  0.86988000  1
  C  C77  1  0.17851000  0.54992000  0.80174000  1
  C  C78  1  0.27119000  0.61672000  0.76084000  1
  C  C79  1  0.11703000  0.64447000  0.69814000  1
  C  C80  1  0.87716000  0.60679000  0.67865000  1
  C  C81  1  0.79859000  0.54123000  0.72074000  1
  C  C82  1  0.19327000  0.71541000  0.65169000  1
  C  C83  1  0.82602000  0.36871000  0.01803000  1
  C  C84  1  0.67224000  0.30327000  0.05872000  1
  C  C85  1  0.76489000  0.26681000  0.12745000  1
  C  C86  1  0.61195000  0.20513000  0.15892000  1
  C  C87  1  0.37126000  0.18325000  0.12325000  1
  C  C88  1  0.29244000  0.22121000  0.05561000  1
  C  C89  1  0.69568000  0.16191000  0.23053000  1
  C  C90  1  0.32960000  0.48679000  0.13012000  1
  C  C91  1  0.17851000  0.45009000  0.19827000  1
  C  C92  1  0.27119000  0.38329000  0.23916000  1
  C  C93  1  0.11703000  0.35554000  0.30186000  1
  C  C94  1  0.87716000  0.39322000  0.32135000  1
  C  C95  1  0.79859000  0.45877000  0.27926000  1
  C  C96  1  0.19327000  0.28459000  0.34831000  1
  C  C97  1  0.82602000  0.63130000  0.98198000  1
  C  C98  1  0.67224000  0.69673000  0.94128000  1
  C  C99  1  0.76489000  0.73320000  0.87255000  1
  C  C100  1  0.61195000  0.79487000  0.84108000  1
  C  C101  1  0.37127000  0.81676000  0.87675000  1
  C  C102  1  0.29244000  0.77880000  0.94440000  1
  C  C103  1  0.69568000  0.83810000  0.76948000  1
  N  N104  1  0.95012000  0.01399000  0.71889000  1
  N  N105  1  0.44433000  0.77998000  0.47577000  1
  N  N106  1  0.95012000  0.98602000  0.28111000  1
  N  N107  1  0.44433000  0.22002000  0.52424000  1
  N  N108  1  0.95011000  0.51400000  0.78111000  1
  N  N109  1  0.44432000  0.27997000  0.02423000  1
  N  N110  1  0.95011000  0.48601000  0.21889000  1
  N  N111  1  0.44432000  0.72003000  0.97578000  1
  O  O112  1  0.21238000  0.94444000  0.60194000  1
  O  O113  1  0.41464000  0.25012000  0.83193000  1
  O  O114  1  0.03943000  0.23833000  0.90262000  1
  O  O115  1  0.70696000  0.89226000  0.55133000  1
  O  O116  1  0.92102000  0.67903000  0.23823000  1
  O  O117  1  0.54491000  0.60760000  0.24285000  1
  O  O118  1  0.21238000  0.05557000  0.39806000  1
  O  O119  1  0.41464000  0.74988000  0.16808000  1
  O  O120  1  0.03943000  0.76168000  0.09738000  1
  O  O121  1  0.70696000  0.10774000  0.44867000  1
  O  O122  1  0.92102000  0.32098000  0.76178000  1
  O  O123  1  0.54491000  0.39240000  0.75715000  1
  O  O124  1  0.21238000  0.44444000  0.89807000  1
  O  O125  1  0.41465000  0.75013000  0.66808000  1
  O  O126  1  0.03943000  0.73834000  0.59739000  1
  O  O127  1  0.70696000  0.39227000  0.94867000  1
  O  O128  1  0.92101000  0.17903000  0.26178000  1
  O  O129  1  0.54491000  0.10760000  0.25715000  1
  O  O130  1  0.21238000  0.55556000  0.10194000  1
  O  O131  1  0.41465000  0.24988000  0.33192000  1
  O  O132  1  0.03943000  0.26167000  0.40261000  1
  O  O133  1  0.70696000  0.60774000  0.05133000  1
  O  O134  1  0.92101000  0.82097000  0.73823000  1
  O  O135  1  0.54491000  0.89241000  0.74285000  1
