# generated using pymatgen
data_CuH2C3(N2O)2
_symmetry_space_group_name_H-M   'P 1'
_cell_length_a   7.96007000
_cell_length_b   12.80971626
_cell_length_c   12.88670000
_cell_angle_alpha   115.69509454
_cell_angle_beta   102.18824000
_cell_angle_gamma   101.56867527
_symmetry_Int_Tables_number   1
_chemical_formula_structural   CuH2C3(N2O)2
_chemical_formula_sum   'Cu6 H12 C18 N24 O12'
_cell_volume   1091.89340871
_cell_formula_units_Z   6
loop_
 _symmetry_equiv_pos_site_id
 _symmetry_equiv_pos_as_xyz
  1  'x, y, z'
loop_
 _atom_site_type_symbol
 _atom_site_label
 _atom_site_symmetry_multiplicity
 _atom_site_fract_x
 _atom_site_fract_y
 _atom_site_fract_z
 _atom_site_occupancy
  Cu  Cu0  1  0.27728000  0.52780000  0.94622000  1
  Cu  Cu1  1  0.33114000  0.05408000  0.58084000  1
  Cu  Cu2  1  0.75131000  0.41892000  0.47281000  1
  Cu  Cu3  1  0.72271000  0.47220000  0.05378000  1
  Cu  Cu4  1  0.66885000  0.94592000  0.41915000  1
  Cu  Cu5  1  0.24867000  0.58107000  0.52717000  1
  H  H6  1  0.03509000  0.76684000  0.25654000  1
  H  H7  1  0.98311000  0.85997000  0.37763000  1
  H  H8  1  0.77969000  0.74024000  0.50882000  1
  H  H9  1  0.60442000  0.61718000  0.47628000  1
  H  H10  1  0.26843000  0.48642000  0.23202000  1
  H  H11  1  0.12527000  0.51854000  0.14096000  1
  H  H12  1  0.96490000  0.23316000  0.74345000  1
  H  H13  1  0.01687000  0.14002000  0.62236000  1
  H  H14  1  0.22030000  0.25976000  0.49118000  1
  H  H15  1  0.39556000  0.38281000  0.52371000  1
  H  H16  1  0.73156000  0.51358000  0.76798000  1
  H  H17  1  0.87472000  0.48146000  0.85904000  1
  C  C18  1  0.76201000  0.73501000  0.23617000  1
  C  C19  1  0.47946000  0.71960000  0.17928000  1
  C  C20  1  0.29321000  0.72912000  0.16168000  1
  C  C21  1  0.52709000  0.76195000  0.49779000  1
  C  C22  1  0.30268000  0.82011000  0.53991000  1
  C  C23  1  0.13441000  0.83763000  0.56696000  1
  C  C24  1  0.02761000  0.49900000  0.26416000  1
  C  C25  1  0.76085000  0.45720000  0.27887000  1
  C  C26  1  0.56534000  0.42981000  0.26860000  1
  C  C27  1  0.23797000  0.26498000  0.76382000  1
  C  C28  1  0.52053000  0.28040000  0.82072000  1
  C  C29  1  0.70678000  0.27088000  0.83832000  1
  C  C30  1  0.47290000  0.23805000  0.50221000  1
  C  C31  1  0.69731000  0.17989000  0.46009000  1
  C  C32  1  0.86558000  0.16237000  0.43303000  1
  C  C33  1  0.97238000  0.50100000  0.73583000  1
  C  C34  1  0.23914000  0.54280000  0.72112000  1
  C  C35  1  0.43465000  0.57019000  0.73140000  1
  N  N36  1  0.67577000  0.62854000  0.12737000  1
  N  N37  1  0.94082000  0.77543000  0.30174000  1
  N  N38  1  0.49777000  0.62198000  0.09307000  1
  N  N39  1  0.64124000  0.79340000  0.27121000  1
  N  N40  1  0.55004000  0.87194000  0.50139000  1
  N  N41  1  0.63993000  0.69568000  0.47177000  1
  N  N42  1  0.40733000  0.90714000  0.52977000  1
  N  N43  1  0.37164000  0.72697000  0.52069000  1
  N  N44  1  0.04755000  0.49671000  0.37071000  1
  N  N45  1  0.16618000  0.52435000  0.22428000  1
  N  N46  1  0.87644000  0.46875000  0.37684000  1
  N  N47  1  0.84884000  0.47544000  0.20530000  1
  N  N48  1  0.32422000  0.37146000  0.87262000  1
  N  N49  1  0.05917000  0.22457000  0.69826000  1
  N  N50  1  0.50222000  0.37802000  0.90693000  1
  N  N51  1  0.35875000  0.20660000  0.72879000  1
  N  N52  1  0.44995000  0.12806000  0.49860000  1
  N  N53  1  0.36006000  0.30432000  0.52823000  1
  N  N54  1  0.59266000  0.09286000  0.47022000  1
  N  N55  1  0.62834000  0.27302000  0.47930000  1
  N  N56  1  0.95244000  0.50329000  0.62929000  1
  N  N57  1  0.83381000  0.47565000  0.77572000  1
  N  N58  1  0.12355000  0.53125000  0.62315000  1
  N  N59  1  0.15115000  0.52456000  0.79470000  1
  O  O60  1  0.17288000  0.64030000  0.05697000  1
  O  O61  1  0.26067000  0.81187000  0.24251000  1
  O  O62  1  0.11762000  0.94284000  0.58302000  1
  O  O63  1  0.02221000  0.75613000  0.56863000  1
  O  O64  1  0.53400000  0.41601000  0.35856000  1
  O  O65  1  0.44961000  0.42597000  0.18436000  1
  O  O66  1  0.82710000  0.35969000  0.94302000  1
  O  O67  1  0.73931000  0.18812000  0.75748000  1
  O  O68  1  0.88237000  0.05716000  0.41698000  1
  O  O69  1  0.97778000  0.24387000  0.43137000  1
  O  O70  1  0.46600000  0.58399000  0.64143000  1
  O  O71  1  0.55037000  0.57402000  0.81563000  1
