# generated using pymatgen
data_H19C35N3
_symmetry_space_group_name_H-M   'P 1'
_cell_length_a   16.24800000
_cell_length_b   34.20190000
_cell_length_c   43.10920000
_cell_angle_alpha   89.99710000
_cell_angle_beta   90.00300000
_cell_angle_gamma   90.00000000
_symmetry_Int_Tables_number   1
_chemical_formula_structural   H19C35N3
_chemical_formula_sum   'H152 C280 N24'
_cell_volume   23956.31999993
_cell_formula_units_Z   8
loop_
 _symmetry_equiv_pos_site_id
 _symmetry_equiv_pos_as_xyz
  1  'x, y, z'
loop_
 _atom_site_type_symbol
 _atom_site_label
 _atom_site_symmetry_multiplicity
 _atom_site_fract_x
 _atom_site_fract_y
 _atom_site_fract_z
 _atom_site_occupancy
  C  1  1  0.06352700  0.37316400  0.99314650  1
  C  2  1  0.05320000  0.41397050  0.99314550  1
  C  3  1  0.97394300  0.42988200  0.99314350  1
  C  4  1  0.90455300  0.40531800  0.49314650  1
  C  5  1  0.91429300  0.36465600  0.49314650  1
  C  6  1  0.99388200  0.34826500  0.99314600  1
  C  13  1  0.06357800  0.59513950  0.99314350  1
  C  14  1  0.05259600  0.55411650  0.99314050  1
  C  15  1  0.97253700  0.53856800  0.99313550  1
  C  16  1  0.90457800  0.56317500  0.49313550  1
  C  17  1  0.91411700  0.60395000  0.49314250  1
  C  18  1  0.99439000  0.62041250  0.99314500  1
  C  25  1  0.06356600  0.87367050  0.24316650  1
  C  26  1  0.05249700  0.91470200  0.24316750  1
  C  27  1  0.97238900  0.93025100  0.24317100  1
  C  28  1  0.90446100  0.90521550  0.24316750  1
  C  29  1  0.91438500  0.86459200  0.24316650  1
  C  30  1  0.99442200  0.84837050  0.24316650  1
  C  37  1  0.06352800  0.09562900  0.24316350  1
  C  38  1  0.05330400  0.05482100  0.24316200  1
  C  39  1  0.97409800  0.03883600  0.24316250  1
  C  40  1  0.90461800  0.06293100  0.24315750  1
  C  41  1  0.91400300  0.10380100  0.24316350  1
  C  42  1  0.99383100  0.12049600  0.24316650  1
  C  49  1  0.48477000  0.26105500  0.01980200  1
  C  50  1  0.48531600  0.22236000  0.00929800  1
  C  51  1  0.48530500  0.22235800  0.47703000  1
  C  52  1  0.48476400  0.26105200  0.46652150  1
  C  53  1  0.48555700  0.26877600  0.43432450  1
  C  54  1  0.48616100  0.23767200  0.41225350  1
  C  55  1  0.48641100  0.19871800  0.42402550  1
  C  56  1  0.48615600  0.19089800  0.45608650  1
  C  57  1  0.48614100  0.19090000  0.03024400  1
  C  58  1  0.48638700  0.19872100  0.06230500  1
  C  59  1  0.48613700  0.23767400  0.07407300  1
  C  60  1  0.48554500  0.26877900  0.05200000  1
  C  61  1  0.55650200  0.31565300  0.99315700  1
  C  62  1  0.53255500  0.35496300  0.99315100  1
  C  63  1  0.44674600  0.35608000  0.99315000  1
  C  64  1  0.41702000  0.31754700  0.99315400  1
  C  65  1  0.39206200  0.38791800  0.99314500  1
  C  66  1  0.30684800  0.38037200  0.99314450  1
  C  67  1  0.27503300  0.34141200  0.99314700  1
  C  68  1  0.33176100  0.30996300  0.99315100  1
  C  69  1  0.64013500  0.30518900  0.49315350  1
  C  70  1  0.70207200  0.33427200  0.49314550  1
  C  71  1  0.67642000  0.37417600  0.49314150  1
  C  72  1  0.59232000  0.38476600  0.49314450  1
  C  85  1  0.48517600  0.28879700  0.99316000  1
  C  86  1  0.19076000  0.33353650  0.99314600  1
  C  87  1  0.78393800  0.32160000  0.49314050  1
  C  88  1  0.48635100  0.24685750  0.10598700  1
  C  89  1  0.48638300  0.24685750  0.38034050  1
  C  94  1  0.48473200  0.70771200  0.46652550  1
  C  95  1  0.48530600  0.74640800  0.47703000  1
  C  96  1  0.48531700  0.74640750  0.00929800  1
  C  97  1  0.48476500  0.70771400  0.01980500  1
  C  98  1  0.48555700  0.69999100  0.05200400  1
  C  99  1  0.48616100  0.73109300  0.07407400  1
  C  100  1  0.48641200  0.77004700  0.06230300  1
  C  101  1  0.48615600  0.77786800  0.03024100  1
  C  102  1  0.48614800  0.77786700  0.45608450  1
  C  103  1  0.48638300  0.77004800  0.42402250  1
  C  104  1  0.48614200  0.73109400  0.41225500  1
  C  105  1  0.48555300  0.69999000  0.43432800  1
  C  106  1  0.55648300  0.65312000  0.99316550  1
  C  107  1  0.53253600  0.61381200  0.99316700  1
  C  108  1  0.44673400  0.61269200  0.99316500  1
  C  109  1  0.41698900  0.65121900  0.99316700  1
  C  110  1  0.39207500  0.58084600  0.99316100  1
  C  111  1  0.30686900  0.58838000  0.99315600  1
  C  112  1  0.27500100  0.62732600  0.99315600  1
  C  113  1  0.33171200  0.65879200  0.99316200  1
  C  114  1  0.64012900  0.66357800  0.99316700  1
  C  115  1  0.70207200  0.63449800  0.99317100  1
  C  116  1  0.67640500  0.59459550  0.99317300  1
  C  117  1  0.59230900  0.58400250  0.99317000  1
  C  130  1  0.48515600  0.67997200  0.99316600  1
  C  131  1  0.19065900  0.63510300  0.99315100  1
  C  132  1  0.78393500  0.64718100  0.99317500  1
  C  133  1  0.48635800  0.72191000  0.38034150  1
  C  134  1  0.48638400  0.72191000  0.10598800  1
  C  139  1  0.48476200  0.76105200  0.26980400  1
  C  140  1  0.48531100  0.72235900  0.25929950  1
  C  141  1  0.48530500  0.72235800  0.22703100  1
  C  142  1  0.48476400  0.76105300  0.21652300  1
  C  143  1  0.48555700  0.76877700  0.18432500  1
  C  144  1  0.48616200  0.73767400  0.16225400  1
  C  145  1  0.48641200  0.69872000  0.17402600  1
  C  146  1  0.48615600  0.69089900  0.20608700  1
  C  147  1  0.48614100  0.69090000  0.28024500  1
  C  148  1  0.48638700  0.69872000  0.31230550  1
  C  149  1  0.48613800  0.73767300  0.32407450  1
  C  150  1  0.48554400  0.76877800  0.30200150  1
  C  151  1  0.55648300  0.81564700  0.24316350  1
  C  152  1  0.53253500  0.85495500  0.24316350  1
  C  153  1  0.44673400  0.85607500  0.24316250  1
  C  154  1  0.41698600  0.81754500  0.24316100  1
  C  155  1  0.39207800  0.88792100  0.24316550  1
  C  156  1  0.30686900  0.88038800  0.24316550  1
  C  157  1  0.27499500  0.84144400  0.24316550  1
  C  158  1  0.33170900  0.80997650  0.24316250  1
  C  159  1  0.64012900  0.80518900  0.24316450  1
  C  160  1  0.70207200  0.83426900  0.24316350  1
  C  161  1  0.67639900  0.87417200  0.24316350  1
  C  162  1  0.59230600  0.88476500  0.24316350  1
  C  175  1  0.48515600  0.78879500  0.24316250  1
  C  176  1  0.19064700  0.83367850  0.24316700  1
  C  177  1  0.78393200  0.82158300  0.24316150  1
  C  178  1  0.48635200  0.74685700  0.35598750  1
  C  179  1  0.48638300  0.74685700  0.13034100  1
  C  184  1  0.48476900  0.20771250  0.21652700  1
  C  185  1  0.48531100  0.24640700  0.22703100  1
  C  186  1  0.48531500  0.24640850  0.25929950  1
  C  187  1  0.48477000  0.20771500  0.26980750  1
  C  188  1  0.48555600  0.19999050  0.30200450  1
  C  189  1  0.48616100  0.23109550  0.32407550  1
  C  190  1  0.48640700  0.27004850  0.31230450  1
  C  191  1  0.48615400  0.27786900  0.28024250  1
  C  192  1  0.48614100  0.27786700  0.20608450  1
  C  193  1  0.48638700  0.27004650  0.17402400  1
  C  194  1  0.48613700  0.23109300  0.16225500  1
  C  195  1  0.48554400  0.19998850  0.18432900  1
  C  196  1  0.55649700  0.15311300  0.24317550  1
  C  197  1  0.53255000  0.11380300  0.24318050  1
  C  198  1  0.44674100  0.11268700  0.24317750  1
  C  199  1  0.41701700  0.15121950  0.24317250  1
  C  200  1  0.39205000  0.08085100  0.24318050  1
  C  201  1  0.30683600  0.08840050  0.24317750  1
  C  202  1  0.27502800  0.12736000  0.24317450  1
  C  203  1  0.33176100  0.15880750  0.24317200  1
  C  204  1  0.64014800  0.16357050  0.24318050  1
  C  205  1  0.70206900  0.13448200  0.24319100  1
  C  206  1  0.67644800  0.09457150  0.24319650  1
  C  207  1  0.59233400  0.08399000  0.24319000  1
  C  220  1  0.48517400  0.17997000  0.24316950  1
  C  221  1  0.19076100  0.13524950  0.24317150  1
  C  222  1  0.78396300  0.14709700  0.24319600  1
  C  223  1  0.48635200  0.22190900  0.13034200  1
  C  224  1  0.48638700  0.22190950  0.35598850  1
  C  457  1  0.06361000  0.37349800  0.49314700  1
  C  458  1  0.05289900  0.41446000  0.49314650  1
  C  459  1  0.97306600  0.42996000  0.49314650  1
  C  460  1  0.90451700  0.40577050  0.99314550  1
  C  461  1  0.91401200  0.36491750  0.99314600  1
  C  462  1  0.99428900  0.34831500  0.49314550  1
  C  469  1  0.06359200  0.59550900  0.49314350  1
  C  470  1  0.05322700  0.55465500  0.49314100  1
  C  471  1  0.97377100  0.53898300  0.49313850  1
  C  472  1  0.90450100  0.56353450  0.99313550  1
  C  473  1  0.91436600  0.60416250  0.99314250  1
  C  474  1  0.99402700  0.62049900  0.49314550  1
  C  481  1  0.06358200  0.87319150  0.74316650  1
  C  482  1  0.05337000  0.91402650  0.74316650  1
  C  483  1  0.97407500  0.92984450  0.74316100  1
  C  484  1  0.90468900  0.90571150  0.74316550  1
  C  485  1  0.91407700  0.86488750  0.74316600  1
  C  486  1  0.99393800  0.84826300  0.74316650  1
  C  493  1  0.06358900  0.09518150  0.74316350  1
  C  494  1  0.05271600  0.05418800  0.74315950  1
  C  495  1  0.97275900  0.03868550  0.74315200  1
  C  496  1  0.90450700  0.06350150  0.74315650  1
  C  497  1  0.91433500  0.10414350  0.74316350  1
  C  498  1  0.99435500  0.12042300  0.74316650  1
  C  505  1  0.48476300  0.26105400  0.51980250  1
  C  506  1  0.48531600  0.22236000  0.50929800  1
  C  507  1  0.48530500  0.22235900  0.97702950  1
  C  508  1  0.48477100  0.26105200  0.96652150  1
  C  509  1  0.48555700  0.26877700  0.93432450  1
  C  510  1  0.48616100  0.23767100  0.91225350  1
  C  511  1  0.48641100  0.19871800  0.92402600  1
  C  512  1  0.48615500  0.19089800  0.95608650  1
  C  513  1  0.48614100  0.19090000  0.53024450  1
  C  514  1  0.48638700  0.19872100  0.56230550  1
  C  515  1  0.48613700  0.23767400  0.57407300  1
  C  516  1  0.48554400  0.26877800  0.55200000  1
  C  517  1  0.55648900  0.31565000  0.49315650  1
  C  518  1  0.53254200  0.35495800  0.49315150  1
  C  519  1  0.44673900  0.35607800  0.49314950  1
  C  520  1  0.41699600  0.31754800  0.49315400  1
  C  521  1  0.39207400  0.38791800  0.49314550  1
  C  522  1  0.30686500  0.38038300  0.49314450  1
  C  523  1  0.27501000  0.34143200  0.49314650  1
  C  524  1  0.33172800  0.30997200  0.49315150  1
  C  525  1  0.64014800  0.30519100  0.99315300  1
  C  526  1  0.70207500  0.33427700  0.99314500  1
  C  527  1  0.67645400  0.37418800  0.99314150  1
  C  528  1  0.59234400  0.38477200  0.99314450  1
  C  541  1  0.48516300  0.28879600  0.49316000  1
  C  542  1  0.19069100  0.33362900  0.49314600  1
  C  543  1  0.78396000  0.32165150  0.99314050  1
  C  544  1  0.48635100  0.24685750  0.60598750  1
  C  545  1  0.48638300  0.24685750  0.88034150  1
  C  550  1  0.48472700  0.70771350  0.96652500  1
  C  551  1  0.48530500  0.74640800  0.97702950  1
  C  552  1  0.48531800  0.74640600  0.50929800  1
  C  553  1  0.48477100  0.70771500  0.51980500  1
  C  554  1  0.48555700  0.69998800  0.55200350  1
  C  555  1  0.48616100  0.73109300  0.57407450  1
  C  556  1  0.48641200  0.77004800  0.56230300  1
  C  557  1  0.48615500  0.77786800  0.53024150  1
  C  558  1  0.48614900  0.77786700  0.95608450  1
  C  559  1  0.48638300  0.77004800  0.92402350  1
  C  560  1  0.48614200  0.73109500  0.91225450  1
  C  561  1  0.48555200  0.69999000  0.93432750  1
  C  562  1  0.55649600  0.65311700  0.49316600  1
  C  563  1  0.53255300  0.61380600  0.49316650  1
  C  564  1  0.44674600  0.61268600  0.49316650  1
  C  565  1  0.41701300  0.65121900  0.49316650  1
  C  566  1  0.39206400  0.58084900  0.49316150  1
  C  567  1  0.30685400  0.58839200  0.49315650  1
  C  568  1  0.27502800  0.62734900  0.49315550  1
  C  569  1  0.33175300  0.65880100  0.49316150  1
  C  570  1  0.64014500  0.66357500  0.49316750  1
  C  571  1  0.70207500  0.63449200  0.49317150  1
  C  572  1  0.67644800  0.59458200  0.49317450  1
  C  573  1  0.59233900  0.58399500  0.49317050  1
  C  586  1  0.48517000  0.67996900  0.49316550  1
  C  587  1  0.19074400  0.63520600  0.49315050  1
  C  588  1  0.78395300  0.64713200  0.49317550  1
  C  589  1  0.48635800  0.72191000  0.88034150  1
  C  590  1  0.48638400  0.72191000  0.60598850  1
  C  595  1  0.48477000  0.76105200  0.76980350  1
  C  596  1  0.48531200  0.72235900  0.75929950  1
  C  597  1  0.48530600  0.72236100  0.72703100  1
  C  598  1  0.48477100  0.76105450  0.71652400  1
  C  599  1  0.48555800  0.76877700  0.68432550  1
  C  600  1  0.48616200  0.73767500  0.66225450  1
  C  601  1  0.48641200  0.69872000  0.67402650  1
  C  602  1  0.48615500  0.69090000  0.70608750  1
  C  603  1  0.48614100  0.69090100  0.78024450  1
  C  604  1  0.48638700  0.69872000  0.81230650  1
  C  605  1  0.48613800  0.73767300  0.82407450  1
  C  606  1  0.48554500  0.76877800  0.80200150  1
  C  607  1  0.55650200  0.81565400  0.74316350  1
  C  608  1  0.53255500  0.85496100  0.74316350  1
  C  609  1  0.44674600  0.85608100  0.74316250  1
  C  610  1  0.41702000  0.81754800  0.74316200  1
  C  611  1  0.39206200  0.88791900  0.74316500  1
  C  612  1  0.30685100  0.88037200  0.74316550  1
  C  613  1  0.27503400  0.84141350  0.74316500  1
  C  614  1  0.33176100  0.80996400  0.74316250  1
  C  615  1  0.64014800  0.80519200  0.74316400  1
  C  616  1  0.70207500  0.83427800  0.74316300  1
  C  617  1  0.67645400  0.87418800  0.74316350  1
  C  618  1  0.59234400  0.88477300  0.74316350  1
  C  631  1  0.48517600  0.78879800  0.74316350  1
  C  632  1  0.19076000  0.83353850  0.74316650  1
  C  633  1  0.78396300  0.82165000  0.74316150  1
  C  634  1  0.48635200  0.74685800  0.85598750  1
  C  635  1  0.48638200  0.74685700  0.63034050  1
  C  640  1  0.48476200  0.20771250  0.71652750  1
  C  641  1  0.48531000  0.24640650  0.72703100  1
  C  642  1  0.48531200  0.24640850  0.75929950  1
  C  643  1  0.48476300  0.20771450  0.76980750  1
  C  644  1  0.48555500  0.19999050  0.80200550  1
  C  645  1  0.48616100  0.23109550  0.82407550  1
  C  646  1  0.48640700  0.27004850  0.81230400  1
  C  647  1  0.48615500  0.27786900  0.78024250  1
  C  648  1  0.48614100  0.27786700  0.70608450  1
  C  649  1  0.48638700  0.27004600  0.67402350  1
  C  650  1  0.48613700  0.23109300  0.66225600  1
  C  651  1  0.48554300  0.19998850  0.68432900  1
  C  652  1  0.55648200  0.15311650  0.74317550  1
  C  653  1  0.53253100  0.11380950  0.74318050  1
  C  654  1  0.44673000  0.11269150  0.74317750  1
  C  655  1  0.41698700  0.15122050  0.74317250  1
  C  656  1  0.39206700  0.08084700  0.74318000  1
  C  657  1  0.30686200  0.08838250  0.74317850  1
  C  658  1  0.27499900  0.12732950  0.74317450  1
  C  659  1  0.33171300  0.15879300  0.74317150  1
  C  660  1  0.64012600  0.16357400  0.74318050  1
  C  661  1  0.70206900  0.13449250  0.74319050  1
  C  662  1  0.67640200  0.09458900  0.74319600  1
  C  663  1  0.59230400  0.08399850  0.74319100  1
  C  676  1  0.48515600  0.17997050  0.74316950  1
  C  677  1  0.19066400  0.13511350  0.74317150  1
  C  678  1  0.78392900  0.14717400  0.74319550  1
  C  679  1  0.48635200  0.22190900  0.63034250  1
  C  680  1  0.48638700  0.22190950  0.85598850  1
  H  7  1  0.84699500  0.41739900  0.49314500  1
  H  8  1  0.00118300  0.31855900  0.99314500  1
  H  9  1  0.10333200  0.43230400  0.99314600  1
  H  19  1  0.84754600  0.55064450  0.49313450  1
  H  20  1  0.00207300  0.65009600  0.99315250  1
  H  21  1  0.10200900  0.53547450  0.99314400  1
  H  31  1  0.84660100  0.91699100  0.24316350  1
  H  32  1  0.00214100  0.81868700  0.24316550  1
  H  33  1  0.10189500  0.93335150  0.24316400  1
  H  43  1  0.84780800  0.05022950  0.24315550  1
  H  44  1  0.00107700  0.15020400  0.24317350  1
  H  45  1  0.10350900  0.03652650  0.24316150  1
  H  73  1  0.71841000  0.39616000  0.49313450  1
  H  74  1  0.57536700  0.41357500  0.49313950  1
  H  75  1  0.41343300  0.41604500  0.99314350  1
  H  76  1  0.26827400  0.40402000  0.99314150  1
  H  77  1  0.31182600  0.28155600  0.99315300  1
  H  78  1  0.65503300  0.27608400  0.49315550  1
  H  79  1  0.48564400  0.29734800  0.42722650  1
  H  80  1  0.48692500  0.17508000  0.40960850  1
  H  81  1  0.48656000  0.16265800  0.46387850  1
  H  82  1  0.48563000  0.29735100  0.05909500  1
  H  83  1  0.48653700  0.16266000  0.02245500  1
  H  84  1  0.48688600  0.17508250  0.07672400  1
  H  90  1  0.79694300  0.29320700  0.49313350  1
  H  91  1  0.16902400  0.30636250  0.99314600  1
  H  92  1  0.48629500  0.27512900  0.11092950  1
  H  93  1  0.48632000  0.27512900  0.37539650  1
  H  118  1  0.71835800  0.57260800  0.99318000  1
  H  119  1  0.57535900  0.55519500  0.99317300  1
  H  120  1  0.41346300  0.55272050  0.99315900  1
  H  121  1  0.26833100  0.56471500  0.99315200  1
  H  122  1  0.31175000  0.68719100  0.99316000  1
  H  123  1  0.65502300  0.69268350  0.99316700  1
  H  124  1  0.48564300  0.67141600  0.05910100  1
  H  125  1  0.48692500  0.79368600  0.07671900  1
  H  126  1  0.48656000  0.80610600  0.02245000  1
  H  127  1  0.48564900  0.67141600  0.42723200  1
  H  128  1  0.48655600  0.80610800  0.46387350  1
  H  129  1  0.48689300  0.79368800  0.40960450  1
  H  135  1  0.79689600  0.67557850  0.99319150  1
  H  136  1  0.16883500  0.66226200  0.99315000  1
  H  137  1  0.48630300  0.69363700  0.37539950  1
  H  138  1  0.48632800  0.69363900  0.11093300  1
  H  163  1  0.71834300  0.89616100  0.24316250  1
  H  164  1  0.57535500  0.91357200  0.24316300  1
  H  165  1  0.41346600  0.91604500  0.24316550  1
  H  166  1  0.26833800  0.90405500  0.24316750  1
  H  167  1  0.31174100  0.78157600  0.24316250  1
  H  168  1  0.65502300  0.77608200  0.24316450  1
  H  169  1  0.48564400  0.79735100  0.17722700  1
  H  170  1  0.48692500  0.67508200  0.15960900  1
  H  171  1  0.48656000  0.66266100  0.21387900  1
  H  172  1  0.48562600  0.79735200  0.30909750  1
  H  173  1  0.48654100  0.66266000  0.27245550  1
  H  174  1  0.48688700  0.67508300  0.32672450  1
  H  180  1  0.79688400  0.79318400  0.24315550  1
  H  181  1  0.16881400  0.80652100  0.24316750  1
  H  182  1  0.48629100  0.77513000  0.36092950  1
  H  183  1  0.48632000  0.77512800  0.12539600  1
  H  208  1  0.71854200  0.07259800  0.24320750  1
  H  209  1  0.57537600  0.05518550  0.24319650  1
  H  210  1  0.41341700  0.05272150  0.24318450  1
  H  211  1  0.26825700  0.06475300  0.24317900  1
  H  212  1  0.31182900  0.18721550  0.24316850  1
  H  213  1  0.65506300  0.19267350  0.24317850  1
  H  214  1  0.48564300  0.17141750  0.30910300  1
  H  215  1  0.48693000  0.29368800  0.32672150  1
  H  216  1  0.48655900  0.30610900  0.27245050  1
  H  217  1  0.48562900  0.17141550  0.17723350  1
  H  218  1  0.48654200  0.30610700  0.21387350  1
  H  219  1  0.48688800  0.29368400  0.15960500  1
  H  225  1  0.79709300  0.17547950  0.24321050  1
  H  226  1  0.16903900  0.16242500  0.24317150  1
  H  227  1  0.48629600  0.19363800  0.12539950  1
  H  228  1  0.48632700  0.19363800  0.36093300  1
  H  463  1  0.84767800  0.41844600  0.99314450  1
  H  464  1  0.00187200  0.31862700  0.49314450  1
  H  465  1  0.10237700  0.43308500  0.49314650  1
  H  475  1  0.84668100  0.55170900  0.99313550  1
  H  476  1  0.00140600  0.65019900  0.49315250  1
  H  477  1  0.10306200  0.53617900  0.49314350  1
  H  487  1  0.84773900  0.91832200  0.74316450  1
  H  488  1  0.00124300  0.81856000  0.74316550  1
  H  489  1  0.10335000  0.93242350  0.74316650  1
  H  499  1  0.84680800  0.05156050  0.74315450  1
  H  500  1  0.00201000  0.15010800  0.74317350  1
  H  501  1  0.10214400  0.03554650  0.74316350  1
  H  529  1  0.71853600  0.39616300  0.99313450  1
  H  530  1  0.57539000  0.41357800  0.99313950  1
  H  531  1  0.41345700  0.41604500  0.49314350  1
  H  532  1  0.26831900  0.40404300  0.49314150  1
  H  533  1  0.31177000  0.28156900  0.49315300  1
  H  534  1  0.65506100  0.27608900  0.99315500  1
  H  535  1  0.48564500  0.29734900  0.92722600  1
  H  536  1  0.48692500  0.17508000  0.90960950  1
  H  537  1  0.48656000  0.16265800  0.96387850  1
  H  538  1  0.48562600  0.29735200  0.55909600  1
  H  539  1  0.48653700  0.16266000  0.52245550  1
  H  540  1  0.48688600  0.17508200  0.57672450  1
  H  546  1  0.79706900  0.29326750  0.99313350  1
  H  547  1  0.16888500  0.30646600  0.49314550  1
  H  548  1  0.48629500  0.27512900  0.61092950  1
  H  549  1  0.48632100  0.27512900  0.87539750  1
  H  574  1  0.71850800  0.57260700  0.49318050  1
  H  575  1  0.57538400  0.55519000  0.49317250  1
  H  576  1  0.41344300  0.55271900  0.49315950  1
  H  577  1  0.26828800  0.56473900  0.49315250  1
  H  578  1  0.31181100  0.68720600  0.49316150  1
  H  579  1  0.65505100  0.69267900  0.49316650  1
  H  580  1  0.48564400  0.67141600  0.55910150  1
  H  581  1  0.48692500  0.79368600  0.57671950  1
  H  582  1  0.48655900  0.80610700  0.52244950  1
  H  583  1  0.48564500  0.67141600  0.92723150  1
  H  584  1  0.48655600  0.80610800  0.96387350  1
  H  585  1  0.48689300  0.79368500  0.90960450  1
  H  591  1  0.79703500  0.67551900  0.49319150  1
  H  592  1  0.16898900  0.66237700  0.49315050  1
  H  593  1  0.48630300  0.69363700  0.87539950  1
  H  594  1  0.48632800  0.69363900  0.61093250  1
  H  619  1  0.71853600  0.89616400  0.74316250  1
  H  620  1  0.57538900  0.91357800  0.74316250  1
  H  621  1  0.41343600  0.91604600  0.74316650  1
  H  622  1  0.26827700  0.90402150  0.74316850  1
  H  623  1  0.31182300  0.78155750  0.74316350  1
  H  624  1  0.65506100  0.77608800  0.74316450  1
  H  625  1  0.48564500  0.79735200  0.67722750  1
  H  626  1  0.48692400  0.67508200  0.65960950  1
  H  627  1  0.48656000  0.66266100  0.71387950  1
  H  628  1  0.48563000  0.79735200  0.80909700  1
  H  629  1  0.48653800  0.66266000  0.77245550  1
  H  630  1  0.48688700  0.67508000  0.82672450  1
  H  636  1  0.79706900  0.79326600  0.74315650  1
  H  637  1  0.16902100  0.80636600  0.74316750  1
  H  638  1  0.48629100  0.77513100  0.86092950  1
  H  639  1  0.48632000  0.77512800  0.62539650  1
  H  664  1  0.71837000  0.07260350  0.74320850  1
  H  665  1  0.57535200  0.05519200  0.74319650  1
  H  666  1  0.41345500  0.05272050  0.74318400  1
  H  667  1  0.26832400  0.06471900  0.74317950  1
  H  668  1  0.31175100  0.18719450  0.74316950  1
  H  669  1  0.65502400  0.19267950  0.74317850  1
  H  670  1  0.48564200  0.17141750  0.80910250  1
  H  671  1  0.48693000  0.29368700  0.82672050  1
  H  672  1  0.48656000  0.30610900  0.77245050  1
  H  673  1  0.48562500  0.17141550  0.67723450  1
  H  674  1  0.48654200  0.30610700  0.71387350  1
  H  675  1  0.48688800  0.29368500  0.65960450  1
  H  681  1  0.79689700  0.17557150  0.74321250  1
  H  682  1  0.16884400  0.16227400  0.74317250  1
  H  683  1  0.48629600  0.19363800  0.62539950  1
  H  684  1  0.48632700  0.19363800  0.86093250  1
  N  10  1  0.14069700  0.36229900  0.99314600  1
  N  11  1  0.95425400  0.46667700  0.49314250  1
  N  12  1  0.84566900  0.34462800  0.49314250  1
  N  22  1  0.14072100  0.60624200  0.99314800  1
  N  23  1  0.96326200  0.50172650  0.49314050  1
  N  24  1  0.84554900  0.62401900  0.49315750  1
  N  34  1  0.14071500  0.86254700  0.24316600  1
  N  35  1  0.94988800  0.96688600  0.24315200  1
  N  36  1  0.84575100  0.84455400  0.24316350  1
  N  46  1  0.14068600  0.10649700  0.24316750  1
  N  47  1  0.96860100  0.00113700  0.24316250  1
  N  48  1  0.84548100  0.12392950  0.24317850  1
  N  466  1  0.14073300  0.36246450  0.49314650  1
  N  467  1  0.96803100  0.46753550  0.99314250  1
  N  468  1  0.84550300  0.34479650  0.99314350  1
  N  478  1  0.14072500  0.60642100  0.49314750  1
  N  479  1  0.95047900  0.50192900  0.99314600  1
  N  480  1  0.84573300  0.62419700  0.99315800  1
  N  490  1  0.14071200  0.86230450  0.74316700  1
  N  491  1  0.96525000  0.96726250  0.74316600  1
  N  492  1  0.84551800  0.84479250  0.74316350  1
  N  502  1  0.14072000  0.10626000  0.74316700  1
  N  503  1  0.95234000  0.00202800  0.74316550  1
  N  504  1  0.84571800  0.12418450  0.74317950  1
