# generated using pymatgen
data_Na2CoH12(C3O)8
_symmetry_space_group_name_H-M   'P 1'
_cell_length_a   13.32970000
_cell_length_b   16.32130000
_cell_length_c   16.32132288
_cell_angle_alpha   80.40103186
_cell_angle_beta   65.89852043
_cell_angle_gamma   65.89870000
_symmetry_Int_Tables_number   1
_chemical_formula_structural   Na2CoH12(C3O)8
_chemical_formula_sum   'Na8 Co4 H48 C96 O32'
_cell_volume   2958.72661597
_cell_formula_units_Z   4
loop_
 _symmetry_equiv_pos_site_id
 _symmetry_equiv_pos_as_xyz
  1  'x, y, z'
loop_
 _atom_site_type_symbol
 _atom_site_label
 _atom_site_symmetry_multiplicity
 _atom_site_fract_x
 _atom_site_fract_y
 _atom_site_fract_z
 _atom_site_occupancy
  Na  Na1  1  0.51373000  0.06960000  0.09248000  1.0
  Na  Na2  1  0.67581000  0.93040000  0.90752000  1.0
  Na  Na3  1  0.83333000  0.59248000  0.43040000  1.0
  Na  Na4  1  0.85621000  0.40752000  0.56960000  1.0
  Na  Na5  1  0.01373000  0.09248000  0.06960000  1.0
  Na  Na6  1  0.17581000  0.90752000  0.93040000  1.0
  Na  Na7  1  0.33333000  0.43040000  0.59248000  1.0
  Na  Na8  1  0.35621000  0.56960000  0.40752000  1.0
  Co  Co1  1  0.36298000  0.00000000  0.00000000  1.0
  Co  Co2  1  0.61298000  0.50000000  0.50000000  1.0
  Co  Co3  1  0.86298000  0.00000000  0.00000000  1.0
  Co  Co4  1  0.11298000  0.50000000  0.50000000  1.0
  H  H1  1  0.19870000  0.26960000  0.16020000  1.0
  H  H2  1  0.05550000  0.37670000  0.26890000  1.0
  H  H3  1  0.77440000  0.25310000  0.43550000  1.0
  H  H4  1  0.76200000  0.11810000  0.43610000  1.0
  H  H5  1  0.90400000  0.01110000  0.32890000  1.0
  H  H6  1  0.06640000  0.03470000  0.22550000  1.0
  H  H7  1  0.62850000  0.73040000  0.83980000  1.0
  H  H8  1  0.70110000  0.62330000  0.73110000  1.0
  H  H9  1  0.46300000  0.74690000  0.56450000  1.0
  H  H10  1  0.31620000  0.88190000  0.56390000  1.0
  H  H11  1  0.24400000  0.98890000  0.67110000  1.0
  H  H12  1  0.32660000  0.96530000  0.77450000  1.0
  H  H13  1  0.71830000  0.66020000  0.23040000  1.0
  H  H14  1  0.68220000  0.76890000  0.12330000  1.0
  H  H15  1  0.27750000  0.93550000  0.24690000  1.0
  H  H16  1  0.13010000  0.93610000  0.38190000  1.0
  H  H17  1  0.16510000  0.82890000  0.48890000  1.0
  H  H18  1  0.35110000  0.72550000  0.46530000  1.0
  H  H19  1  0.60890000  0.33980000  0.76960000  1.0
  H  H20  1  0.57440000  0.23110000  0.87670000  1.0
  H  H21  1  0.45990000  0.06450000  0.75310000  1.0
  H  H22  1  0.44810000  0.06390000  0.61810000  1.0
  H  H23  1  0.48290000  0.17110000  0.51110000  1.0
  H  H24  1  0.54190000  0.27450000  0.53470000  1.0
  H  H25  1  0.69870000  0.16020000  0.26960000  1.0
  H  H26  1  0.55550000  0.26890000  0.37670000  1.0
  H  H27  1  0.27440000  0.43550000  0.25310000  1.0
  H  H28  1  0.26200000  0.43610000  0.11810000  1.0
  H  H29  1  0.40400000  0.32890000  0.01110000  1.0
  H  H30  1  0.56640000  0.22550000  0.03470000  1.0
  H  H31  1  0.12850000  0.83980000  0.73040000  1.0
  H  H32  1  0.20110000  0.73110000  0.62330000  1.0
  H  H33  1  0.96300000  0.56450000  0.74690000  1.0
  H  H34  1  0.81620000  0.56390000  0.88190000  1.0
  H  H35  1  0.74400000  0.67110000  0.98890000  1.0
  H  H36  1  0.82660000  0.77450000  0.96530000  1.0
  H  H37  1  0.21830000  0.23040000  0.66020000  1.0
  H  H38  1  0.18220000  0.12330000  0.76890000  1.0
  H  H39  1  0.77750000  0.24690000  0.93550000  1.0
  H  H40  1  0.63010000  0.38190000  0.93610000  1.0
  H  H41  1  0.66510000  0.48890000  0.82890000  1.0
  H  H42  1  0.85110000  0.46530000  0.72550000  1.0
  H  H43  1  0.10890000  0.76960000  0.33980000  1.0
  H  H44  1  0.07440000  0.87670000  0.23110000  1.0
  H  H45  1  0.95990000  0.75310000  0.06450000  1.0
  H  H46  1  0.94810000  0.61810000  0.06390000  1.0
  H  H47  1  0.98290000  0.51110000  0.17110000  1.0
  H  H48  1  0.04190000  0.53470000  0.27450000  1.0
  C  C1  1  0.21725000  0.11784000  0.12146000  1.0
  C  C2  1  0.12012000  0.18137000  0.19739000  1.0
  C  C3  1  0.13209333  0.25924000  0.20124000  1.0
  C  C4  1  0.04489000  0.32431000  0.26671000  1.0
  C  C5  1  0.94557000  0.31235000  0.32671000  1.0
  C  C6  1  0.93203000  0.22971000  0.32743000  1.0
  C  C7  1  0.83377000  0.21023000  0.39263000  1.0
  C  C8  1  0.82610000  0.12990000  0.39250000  1.0
  C  C9  1  0.91211000  0.06501000  0.32877000  1.0
  C  C10  1  0.00772000  0.07976000  0.26640000  1.0
  C  C11  1  0.02012000  0.16258000  0.26218000  1.0
  C  C12  1  0.85551000  0.39009000  0.39149000  1.0
  C  C13  1  0.45655000  0.88216000  0.87854000  1.0
  C  C14  1  0.49888000  0.81863000  0.80261000  1.0
  C  C15  1  0.59264000  0.74076000  0.79876000  1.0
  C  C16  1  0.63591000  0.67569000  0.73329000  1.0
  C  C17  1  0.58463000  0.68765000  0.67329000  1.0
  C  C18  1  0.48917000  0.77029000  0.67257000  1.0
  C  C19  1  0.43663000  0.78977000  0.60737000  1.0
  C  C20  1  0.34850000  0.87010000  0.60750000  1.0
  C  C21  1  0.30589000  0.93499000  0.67123000  1.0
  C  C22  1  0.35388000  0.92024000  0.73360000  1.0
  C  C23  1  0.44488000  0.83742000  0.73782000  1.0
  C  C24  1  0.63709000  0.60991000  0.60851000  1.0
  C  C25  1  0.58509000  0.62146000  0.38216000  1.0
  C  C26  1  0.55149000  0.69739000  0.31863000  1.0
  C  C27  1  0.64140000  0.70124000  0.24076000  1.0
  C  C28  1  0.61920000  0.76671000  0.17569000  1.0
  C  C29  1  0.50792000  0.82671000  0.18765000  1.0
  C  C30  1  0.41174000  0.82743000  0.27029000  1.0
  C  C31  1  0.29400000  0.89263000  0.28977000  1.0
  C  C32  1  0.20600000  0.89250000  0.37010000  1.0
  C  C33  1  0.22712000  0.82877000  0.43499000  1.0
  C  C34  1  0.33748000  0.76640000  0.42024000  1.0
  C  C35  1  0.43270000  0.76218000  0.33742000  1.0
  C  C36  1  0.49560000  0.89149000  0.10991000  1.0
  C  C37  1  0.58871000  0.37854000  0.61784000  1.0
  C  C38  1  0.56751000  0.30261000  0.68137000  1.0
  C  C39  1  0.58340000  0.29876000  0.75924000  1.0
  C  C40  1  0.56160000  0.23329000  0.82431000  1.0
  C  C41  1  0.52228000  0.17329000  0.81235000  1.0
  C  C42  1  0.50946000  0.17257000  0.72971000  1.0
  C  C43  1  0.47640000  0.10737000  0.71023000  1.0
  C  C44  1  0.46860000  0.10750000  0.62990000  1.0
  C  C45  1  0.49088000  0.17123000  0.56501000  1.0
  C  C46  1  0.52412000  0.23360000  0.57976000  1.0
  C  C47  1  0.53230000  0.23782000  0.66258000  1.0
  C  C48  1  0.49700000  0.10851000  0.89009000  1.0
  C  C49  1  0.71725000  0.12146000  0.11784000  1.0
  C  C50  1  0.62012000  0.19739000  0.18137000  1.0
  C  C51  1  0.63216000  0.20124000  0.25924000  1.0
  C  C52  1  0.54489000  0.26671000  0.32431000  1.0
  C  C53  1  0.44557000  0.32671000  0.31235000  1.0
  C  C54  1  0.43203000  0.32743000  0.22971000  1.0
  C  C55  1  0.33377000  0.39263000  0.21023000  1.0
  C  C56  1  0.32610000  0.39250000  0.12990000  1.0
  C  C57  1  0.41211000  0.32877000  0.06501000  1.0
  C  C58  1  0.50772000  0.26640000  0.07976000  1.0
  C  C59  1  0.52012000  0.26218000  0.16258000  1.0
  C  C60  1  0.35551000  0.39149000  0.39009000  1.0
  C  C61  1  0.95655000  0.87854000  0.88216000  1.0
  C  C62  1  0.99888000  0.80261000  0.81863000  1.0
  C  C63  1  0.09264000  0.79876000  0.74076000  1.0
  C  C64  1  0.13591000  0.73329000  0.67569000  1.0
  C  C65  1  0.08463000  0.67329000  0.68765000  1.0
  C  C66  1  0.98917000  0.67257000  0.77029000  1.0
  C  C67  1  0.93663000  0.60737000  0.78977000  1.0
  C  C68  1  0.84850000  0.60750000  0.87010000  1.0
  C  C69  1  0.80589000  0.67123000  0.93499000  1.0
  C  C70  1  0.85388000  0.73360000  0.92024000  1.0
  C  C71  1  0.94488000  0.73782000  0.83742000  1.0
  C  C72  1  0.13709000  0.60851000  0.60991000  1.0
  C  C73  1  0.08509000  0.38216000  0.62146000  1.0
  C  C74  1  0.05149000  0.31863000  0.69739000  1.0
  C  C75  1  0.14140000  0.24076000  0.70124000  1.0
  C  C76  1  0.11920000  0.17569000  0.76671000  1.0
  C  C77  1  0.00792000  0.18765000  0.82671000  1.0
  C  C78  1  0.91174000  0.27029000  0.82743000  1.0
  C  C79  1  0.79400000  0.28977000  0.89263000  1.0
  C  C80  1  0.70600000  0.37010000  0.89250000  1.0
  C  C81  1  0.72712000  0.43499000  0.82877000  1.0
  C  C82  1  0.83748000  0.42024000  0.76640000  1.0
  C  C83  1  0.93270000  0.33742000  0.76218000  1.0
  C  C84  1  0.99560000  0.10991000  0.89149000  1.0
  C  C85  1  0.08871000  0.61784000  0.37854000  1.0
  C  C86  1  0.06751000  0.68137000  0.30261000  1.0
  C  C87  1  0.08340000  0.75924000  0.29876000  1.0
  C  C88  1  0.06160000  0.82431000  0.23329000  1.0
  C  C89  1  0.02228000  0.81235000  0.17329000  1.0
  C  C90  1  0.00946000  0.72971000  0.17257000  1.0
  C  C91  1  0.97640000  0.71023000  0.10737000  1.0
  C  C92  1  0.96860000  0.62990000  0.10750000  1.0
  C  C93  1  0.99088000  0.56501000  0.17123000  1.0
  C  C94  1  0.02412000  0.57976000  0.23360000  1.0
  C  C95  1  0.03230000  0.66258000  0.23782000  1.0
  C  C96  1  0.99700000  0.89009000  0.10851000  1.0
  O  O1  1  0.32092000  0.11051000  0.10005000  1.0
  O  O2  1  0.19065000  0.07380000  0.08180000  1.0
  O  O3  1  0.74667000  0.40336000  0.41550000  1.0
  O  O4  1  0.89377000  0.43487000  0.41599000  1.0
  O  O5  1  0.53148000  0.88949000  0.89995000  1.0
  O  O6  1  0.34625000  0.92620000  0.91820000  1.0
  O  O7  1  0.56553000  0.59664000  0.58450000  1.0
  O  O8  1  0.74463000  0.56513000  0.58401000  1.0
  O  O9  1  0.68143000  0.60005000  0.38949000  1.0
  O  O10  1  0.51445000  0.58180000  0.42620000  1.0
  O  O11  1  0.40003000  0.91550000  0.09664000  1.0
  O  O12  1  0.57864000  0.91599000  0.06513000  1.0
  O  O13  1  0.67097000  0.39995000  0.61051000  1.0
  O  O14  1  0.52245000  0.41820000  0.57380000  1.0
  O  O15  1  0.41217000  0.08450000  0.90336000  1.0
  O  O16  1  0.55976000  0.08401000  0.93487000  1.0
  O  O17  1  0.82092000  0.10005000  0.11051000  1.0
  O  O18  1  0.69065000  0.08180000  0.07380000  1.0
  O  O19  1  0.24667000  0.41550000  0.40336000  1.0
  O  O20  1  0.39377000  0.41599000  0.43487000  1.0
  O  O21  1  0.03148000  0.89995000  0.88949000  1.0
  O  O22  1  0.84625000  0.91820000  0.92620000  1.0
  O  O23  1  0.06553000  0.58450000  0.59664000  1.0
  O  O24  1  0.24463000  0.58401000  0.56513000  1.0
  O  O25  1  0.18143000  0.38949000  0.60005000  1.0
  O  O26  1  0.01445000  0.42620000  0.58180000  1.0
  O  O27  1  0.90003000  0.09664000  0.91550000  1.0
  O  O28  1  0.07864000  0.06513000  0.91599000  1.0
  O  O29  1  0.17097000  0.61051000  0.39995000  1.0
  O  O30  1  0.02245000  0.57380000  0.41820000  1.0
  O  O31  1  0.91217000  0.90336000  0.08450000  1.0
  O  O32  1  0.05976000  0.93487000  0.08401000  1.0
