# generated using pymatgen
data_LaZnH10C20N3O10
_symmetry_space_group_name_H-M   'P 1'
_cell_length_a   10.42511000
_cell_length_b   12.28249000
_cell_length_c   12.62955000
_cell_angle_alpha   85.07114000
_cell_angle_beta   79.08818000
_cell_angle_gamma   76.06141000
_symmetry_Int_Tables_number   1
_chemical_formula_structural   LaZnH10C20N3O10
_chemical_formula_sum   'La2 Zn2 H20 C40 N6 O20'
_cell_volume   1539.79098626
_cell_formula_units_Z   2
loop_
 _symmetry_equiv_pos_site_id
 _symmetry_equiv_pos_as_xyz
  1  'x, y, z'
loop_
 _atom_site_type_symbol
 _atom_site_label
 _atom_site_symmetry_multiplicity
 _atom_site_fract_x
 _atom_site_fract_y
 _atom_site_fract_z
 _atom_site_occupancy
  La  La1  1  0.98575000  0.13584000  0.82561000  1.0
  La  La2  1  0.01425000  0.86416000  0.17440000  1.0
  Zn  Zn1  1  0.18329000  0.34754000  0.19910000  1.0
  Zn  Zn2  1  0.81670000  0.65247000  0.80091000  1.0
  H  H1  1  0.32251000  0.70764000  0.99710000  1.0
  H  H2  1  0.23841000  0.54318000  0.33366000  1.0
  H  H3  1  0.33971000  0.37906000  0.90210000  1.0
  H  H4  1  0.10195000  0.68523000  0.77747000  1.0
  H  H5  1  0.56590000  0.60565000  0.94258000  1.0
  H  H6  1  0.32819000  0.57208000  0.81576000  1.0
  H  H7  1  0.14602000  0.42993000  0.66643000  1.0
  H  H8  1  0.22590000  0.57125000  0.53035000  1.0
  H  H9  1  0.39072000  0.95194000  0.73876000  1.0
  H  H10  1  0.63493000  0.84815000  0.70503000  1.0
  H  H11  1  0.67749000  0.29237000  0.00291000  1.0
  H  H12  1  0.76158000  0.45682000  0.66634000  1.0
  H  H13  1  0.66029000  0.62094000  0.09790000  1.0
  H  H14  1  0.89805000  0.31477000  0.22253000  1.0
  H  H15  1  0.43410000  0.39436000  0.05742000  1.0
  H  H16  1  0.67181000  0.42793000  0.18425000  1.0
  H  H17  1  0.85398000  0.57008000  0.33357000  1.0
  H  H18  1  0.77410000  0.42875000  0.46966000  1.0
  H  H19  1  0.60928000  0.04807000  0.26124000  1.0
  H  H20  1  0.36507000  0.15186000  0.29497000  1.0
  C  C1  1  0.01251000  0.45096000  0.87444000  1.0
  C  C2  1  0.13215000  0.38391000  0.90287000  1.0
  C  C3  1  0.87927000  0.41681000  0.88735000  1.0
  C  C4  1  0.15304000  0.26757000  0.95798000  1.0
  C  C5  1  0.12430000  0.32149000  0.43387000  1.0
  C  C6  1  0.08615000  0.22509000  0.38906000  1.0
  C  C7  1  0.38940000  0.74025000  0.93165000  1.0
  C  C8  1  0.20600000  0.48391000  0.39580000  1.0
  C  C9  1  0.34070000  0.83912000  0.87358000  1.0
  C  C10  1  0.24634000  0.42946000  0.88079000  1.0
  C  C11  1  0.11668000  0.59940000  0.81154000  1.0
  C  C12  1  0.11210000  0.33144000  0.54498000  1.0
  C  C13  1  0.19874000  0.90472000  0.90612000  1.0
  C  C14  1  0.52301000  0.68456000  0.90278000  1.0
  C  C15  1  0.24006000  0.53659000  0.83344000  1.0
  C  C16  1  0.15150000  0.42129000  0.58058000  1.0
  C  C17  1  0.19763000  0.49908000  0.50527000  1.0
  C  C18  1  0.06228000  0.24802000  0.62681000  1.0
  C  C19  1  0.42717000  0.87721000  0.78737000  1.0
  C  C20  1  0.56136000  0.81915000  0.76719000  1.0
  C  C21  1  0.98749000  0.54904000  0.12557000  1.0
  C  C22  1  0.86785000  0.61609000  0.09714000  1.0
  C  C23  1  0.12073000  0.58319000  0.11265000  1.0
  C  C24  1  0.84696000  0.73244000  0.04202000  1.0
  C  C25  1  0.87569000  0.67851000  0.56614000  1.0
  C  C26  1  0.91385000  0.77492000  0.61094000  1.0
  C  C27  1  0.61060000  0.25976000  0.06835000  1.0
  C  C28  1  0.79400000  0.51610000  0.60421000  1.0
  C  C29  1  0.65930000  0.16088000  0.12642000  1.0
  C  C30  1  0.75366000  0.57054000  0.11921000  1.0
  C  C31  1  0.88332000  0.40061000  0.18847000  1.0
  C  C32  1  0.88789000  0.66857000  0.45503000  1.0
  C  C33  1  0.80126000  0.09529000  0.09388000  1.0
  C  C34  1  0.47698000  0.31544000  0.09722000  1.0
  C  C35  1  0.75994000  0.46341000  0.16656000  1.0
  C  C36  1  0.84849000  0.57872000  0.41942000  1.0
  C  C37  1  0.80237000  0.50093000  0.49473000  1.0
  C  C38  1  0.93772000  0.75198000  0.37320000  1.0
  C  C39  1  0.57282000  0.12279000  0.21264000  1.0
  C  C40  1  0.43864000  0.18085000  0.23281000  1.0
  N  N1  1  0.17110000  0.39634000  0.36166000  1.0
  N  N2  1  0.60876000  0.72473000  0.82411000  1.0
  N  N3  1  0.00744000  0.55648000  0.83171000  1.0
  N  N4  1  0.82889000  0.60367000  0.63834000  1.0
  N  N5  1  0.39123000  0.27528000  0.17590000  1.0
  N  N6  1  0.99255000  0.44352000  0.16830000  1.0
  O  O1  1  0.15152000  0.90975000  0.00653000  1.0
  O  O2  1  0.18857000  0.25571000  0.04798000  1.0
  O  O3  1  0.03779000  0.15857000  0.45508000  1.0
  O  O4  1  0.93755000  0.26971000  0.67171000  1.0
  O  O5  1  0.14910000  0.16754000  0.66090000  1.0
  O  O6  1  0.77726000  0.49253000  0.87341000  1.0
  O  O7  1  0.10913000  0.22112000  0.28464000  1.0
  O  O8  1  0.14486000  0.18567000  0.90439000  1.0
  O  O9  1  0.13642000  0.95204000  0.83105000  1.0
  O  O10  1  0.87719000  0.31401000  0.91099000  1.0
  O  O11  1  0.84847000  0.09025000  0.99347000  1.0
  O  O12  1  0.81143000  0.74429000  0.95203000  1.0
  O  O13  1  0.96221000  0.84144000  0.54493000  1.0
  O  O14  1  0.06245000  0.73030000  0.32830000  1.0
  O  O15  1  0.85089000  0.83246000  0.33911000  1.0
  O  O16  1  0.22274000  0.50748000  0.12659000  1.0
  O  O17  1  0.89087000  0.77889000  0.71536000  1.0
  O  O18  1  0.85513000  0.81433000  0.09561000  1.0
  O  O19  1  0.86358000  0.04796000  0.16896000  1.0
  O  O20  1  0.12280000  0.68599000  0.08901000  1.0
