# generated using pymatgen
data_EuCuH8C16N5O8
_symmetry_space_group_name_H-M   'P 1'
_cell_length_a   10.69570480
_cell_length_b   10.95872000
_cell_length_c   11.92600000
_cell_angle_alpha   102.51251000
_cell_angle_beta   96.91190816
_cell_angle_gamma   118.30250884
_symmetry_Int_Tables_number   1
_chemical_formula_structural   EuCuH8C16N5O8
_chemical_formula_sum   'Eu2 Cu2 H16 C32 N10 O16'
_cell_volume   1160.35899783
_cell_formula_units_Z   2
loop_
 _symmetry_equiv_pos_site_id
 _symmetry_equiv_pos_as_xyz
  1  'x, y, z'
loop_
 _atom_site_type_symbol
 _atom_site_label
 _atom_site_symmetry_multiplicity
 _atom_site_fract_x
 _atom_site_fract_y
 _atom_site_fract_z
 _atom_site_occupancy
  Eu  Eu1  1  0.99264000  0.53518000  0.83033000  1.0
  Eu  Eu2  1  0.00635000  0.46232000  0.16771000  1.0
  Cu  Cu1  1  0.99946000  0.99804000  0.00034000  1.0
  Cu  Cu2  1  0.00134000  0.99819000  0.50027000  1.0
  H  H1  1  0.24054000  0.28135000  0.48135000  1.0
  H  H2  1  0.51552000  0.45043000  0.57218000  1.0
  H  H3  1  0.49519000  0.16819000  0.77786000  1.0
  H  H4  1  0.22499000  0.00020000  0.67017000  1.0
  H  H5  1  0.75673000  0.71823000  0.82481000  1.0
  H  H6  1  0.47875000  0.58429000  0.76688000  1.0
  H  H7  1  0.50500000  0.92226000  0.04872000  1.0
  H  H8  1  0.77999000  0.04264000  0.09840000  1.0
  H  H9  1  0.76020000  0.71319000  0.51607000  1.0
  H  H10  1  0.48450000  0.54881000  0.42808000  1.0
  H  H11  1  0.50683000  0.84016333  0.23123000  1.0
  H  H12  1  0.77905000  0.00152000  0.33435000  1.0
  H  H13  1  0.23939000  0.28200000  0.17528000  1.0
  H  H14  1  0.51656000  0.42148000  0.23267000  1.0
  H  H15  1  0.49819000  0.08201000  0.95772000  1.0
  H  H16  1  0.22317000  0.95701000  0.90686000  1.0
  C  C1  1  0.96907000  0.14106000  0.71491000  1.0
  C  C2  1  0.97775000  0.14963000  0.83431000  1.0
  C  C3  1  0.95475000  0.22364000  0.63457000  1.0
  C  C4  1  0.98772000  0.25293000  0.94291000  1.0
  C  C5  1  0.30220000  0.25938000  0.54547000  1.0
  C  C6  1  0.45263000  0.35290000  0.59682000  1.0
  C  C7  1  0.52376000  0.32133000  0.68238000  1.0
  C  C8  1  0.44164000  0.19385000  0.71107000  1.0
  C  C9  1  0.29317000  0.10238000  0.65334000  1.0
  C  C10  1  0.68548000  0.42062000  0.74411000  1.0
  C  C11  1  0.69611000  0.75858000  0.87211000  1.0
  C  C12  1  0.54325000  0.68570000  0.84029000  1.0
  C  C13  1  0.47220000  0.74546000  0.90270000  1.0
  C  C14  1  0.55750000  0.87396000  0.99846000  1.0
  C  C15  1  0.70967000  0.94057000  0.02675000  1.0
  C  C16  1  0.30750000  0.67642000  0.86586000  1.0
  C  C17  1  0.03115000  0.85415000  0.28485000  1.0
  C  C18  1  0.02068000  0.84518000  0.16519000  1.0
  C  C19  1  0.04532000  0.77166000  0.36542000  1.0
  C  C20  1  0.00905000  0.74233000  0.05519000  1.0
  C  C21  1  0.69877000  0.73805000  0.45443000  1.0
  C  C22  1  0.54766000  0.64722000  0.40457000  1.0
  C  C23  1  0.47717000  0.68283000  0.32201000  1.0
  C  C24  1  0.56048000  0.81147000  0.29528000  1.0
  C  C25  1  0.70976000  0.89937000  0.35071000  1.0
  C  C26  1  0.31549000  0.58697000  0.25945000  1.0
  C  C27  1  0.30103000  0.24248000  0.12876000  1.0
  C  C28  1  0.45394000  0.31858000  0.16072000  1.0
  C  C29  1  0.52756000  0.26025000  0.10059000  1.0
  C  C30  1  0.44429000  0.12988000  0.00644000  1.0
  C  C31  1  0.29177000  0.06047000  0.97728000  1.0
  C  C32  1  0.69261000  0.33402000  0.13910000  1.0
  N  N1  1  0.97429000  0.02032000  0.66417000  1.0
  N  N2  1  0.98491000  0.95363000  0.74302000  1.0
  N  N3  1  0.98653000  0.03251000  0.84570000  1.0
  N  N4  1  0.22500000  0.13613000  0.57337000  1.0
  N  N5  1  0.77693000  0.88431000  0.96339000  1.0
  N  N6  1  0.02790000  0.97592000  0.33637000  1.0
  N  N7  1  0.01693000  0.04292000  0.25794000  1.0
  N  N8  1  0.01298000  0.96316000  0.15468000  1.0
  N  N9  1  0.77728000  0.86182000  0.42763000  1.0
  N  N10  1  0.22216000  0.11530000  0.03875000  1.0
  O  O1  1  0.97053000  0.18348000  0.53075000  1.0
  O  O2  1  0.92449000  0.32133000  0.66825000  1.0
  O  O3  1  0.98637000  0.36737000  0.93863000  1.0
  O  O4  1  0.99995000  0.22385000  0.04020000  1.0
  O  O5  1  0.76777000  0.51317000  0.69762000  1.0
  O  O6  1  0.73147000  0.40365000  0.83990000  1.0
  O  O7  1  0.25415000  0.75557000  0.90191000  1.0
  O  O8  1  0.22961000  0.54384000  0.80060000  1.0
  O  O9  1  0.03042000  0.81252000  0.46952000  1.0
  O  O10  1  0.07442000  0.67315000  0.33198000  1.0
  O  O11  1  0.01172000  0.62808000  0.05736000  1.0
  O  O12  1  0.99496000  0.77279000  0.95884000  1.0
  O  O13  1  0.23286000  0.48304000  0.29636000  1.0
  O  O14  1  0.26947000  0.61716000  0.17188000  1.0
  O  O15  1  0.74837000  0.25334000  0.11459000  1.0
  O  O16  1  0.76873000  0.46953000  0.19343000  1.0
