# generated using pymatgen
data_CdH10(C3O)6
_symmetry_space_group_name_H-M   'P 1'
_cell_length_a   10.61894000
_cell_length_b   15.94707000
_cell_length_c   19.17180000
_cell_angle_alpha   82.32575000
_cell_angle_beta   89.99636000
_cell_angle_gamma   89.97992000
_symmetry_Int_Tables_number   1
_chemical_formula_structural   CdH10(C3O)6
_chemical_formula_sum   'Cd6 H60 C108 O36'
_cell_volume   3217.49267884
_cell_formula_units_Z   6
loop_
 _symmetry_equiv_pos_site_id
 _symmetry_equiv_pos_as_xyz
  1  'x, y, z'
loop_
 _atom_site_type_symbol
 _atom_site_label
 _atom_site_symmetry_multiplicity
 _atom_site_fract_x
 _atom_site_fract_y
 _atom_site_fract_z
 _atom_site_occupancy
  Cd  Cd1  1  0.43366000  0.95333000  0.42464000  1.0
  Cd  Cd2  1  0.56633000  0.04667000  0.57535000  1.0
  Cd  Cd3  1  0.43369000  0.04726000  0.07544000  1.0
  Cd  Cd4  1  0.52108000  0.99988000  0.25000000  1.0
  Cd  Cd5  1  0.47892000  0.00012000  0.74999000  1.0
  Cd  Cd6  1  0.56631000  0.95274000  0.92455000  1.0
  H  H1  1  0.64862000  0.34880000  0.23217000  1.0
  H  H2  1  0.84825000  0.81968000  0.27460000  1.0
  H  H3  1  0.11869000  0.67030000  0.01887000  1.0
  H  H4  1  0.18152000  0.33225000  0.93765000  1.0
  H  H5  1  0.88130000  0.32970000  0.98113000  1.0
  H  H6  1  0.29542000  0.19809000  0.97466000  1.0
  H  H7  1  0.70448000  0.19826000  0.47466000  1.0
  H  H8  1  0.81848000  0.66774000  0.06234000  1.0
  H  H9  1  0.35138000  0.65119000  0.76783000  1.0
  H  H10  1  0.22038000  0.78583000  0.11516000  1.0
  H  H11  1  0.84844000  0.18041000  0.22581000  1.0
  H  H12  1  0.00833000  0.29654000  0.19559000  1.0
  H  H13  1  0.29551000  0.80173000  0.52534000  1.0
  H  H14  1  0.22330000  0.51571000  0.41357000  1.0
  H  H15  1  0.00878000  0.34086000  0.30646000  1.0
  H  H16  1  0.31272000  0.31867000  0.13445000  1.0
  H  H17  1  0.77669000  0.48429000  0.58643000  1.0
  H  H18  1  0.81865000  0.33224000  0.43756000  1.0
  H  H19  1  0.88131000  0.67009000  0.51907000  1.0
  H  H20  1  0.27552000  0.57879000  0.28033000  1.0
  H  H21  1  0.77647000  0.51663000  0.91275000  1.0
  H  H22  1  0.77962000  0.21416000  0.88484000  1.0
  H  H23  1  0.46199000  0.21167000  0.76836000  1.0
  H  H24  1  0.27535000  0.78843000  0.98898000  1.0
  H  H25  1  0.72447000  0.42120000  0.71967000  1.0
  H  H26  1  0.99149000  0.34139000  0.80602000  1.0
  H  H27  1  0.25926000  0.88898000  0.20127000  1.0
  H  H28  1  0.82553000  0.55740000  0.37406000  1.0
  H  H29  1  0.27520000  0.21164000  0.51056000  1.0
  H  H30  1  0.46222000  0.78820000  0.73161000  1.0
  H  H31  1  0.27526000  0.42101000  0.22161000  1.0
  H  H32  1  0.72465000  0.21156000  0.01101000  1.0
  H  H33  1  0.77919000  0.78765000  0.61441000  1.0
  H  H34  1  0.22081000  0.21235000  0.38558000  1.0
  H  H35  1  0.18135000  0.66776000  0.56243000  1.0
  H  H36  1  0.15174000  0.18031000  0.72540000  1.0
  H  H37  1  0.99196000  0.29667000  0.69547000  1.0
  H  H38  1  0.74042000  0.88937000  0.70171000  1.0
  H  H39  1  0.68704000  0.31783000  0.63361000  1.0
  H  H40  1  0.53801000  0.78833000  0.23164000  1.0
  H  H41  1  0.17447000  0.44260000  0.62594000  1.0
  H  H42  1  0.31295000  0.68217000  0.36638000  1.0
  H  H43  1  0.99167000  0.70345000  0.80441000  1.0
  H  H44  1  0.70458000  0.80191000  0.02534000  1.0
  H  H45  1  0.74074000  0.11102000  0.79873000  1.0
  H  H46  1  0.99122000  0.65913000  0.69353000  1.0
  H  H47  1  0.82529000  0.44275000  0.12552000  1.0
  H  H48  1  0.11868000  0.32991000  0.48093000  1.0
  H  H49  1  0.64855000  0.65116000  0.26774000  1.0
  H  H50  1  0.22352000  0.48336000  0.08725000  1.0
  H  H51  1  0.68728000  0.68132000  0.86555000  1.0
  H  H52  1  0.17470000  0.55725000  0.87447000  1.0
  H  H53  1  0.00851000  0.65861000  0.19397000  1.0
  H  H54  1  0.25957000  0.11062000  0.29829000  1.0
  H  H55  1  0.72474000  0.57899000  0.77839000  1.0
  H  H56  1  0.00803000  0.70333000  0.30452000  1.0
  H  H57  1  0.15156000  0.81959000  0.77419000  1.0
  H  H58  1  0.35144000  0.34883000  0.73226000  1.0
  H  H59  1  0.53778000  0.21180000  0.26838000  1.0
  H  H60  1  0.72479000  0.78836000  0.48943000  1.0
  C  C1  1  0.95129000  0.68096000  0.41305000  1.0
  C  C2  1  0.87266000  0.42417000  0.85888000  1.0
  C  C3  1  0.12557000  0.29579000  0.53375000  1.0
  C  C4  1  0.28963000  0.79151000  0.28860000  1.0
  C  C5  1  0.95142000  0.31883000  0.08713000  1.0
  C  C6  1  0.97408000  0.45521000  0.60321000  1.0
  C  C7  1  0.32369000  0.85239000  0.33779000  1.0
  C  C8  1  0.68012000  0.12199000  0.13642000  1.0
  C  C9  1  0.45242000  0.88549000  0.60653000  1.0
  C  C10  1  0.87442000  0.70421000  0.46624000  1.0
  C  C11  1  0.13455000  0.49652000  0.39246000  1.0
  C  C12  1  0.24264000  0.69450000  0.59923000  1.0
  C  C13  1  0.22195000  0.18904000  0.61952000  1.0
  C  C14  1  0.27214000  0.64663000  0.26358000  1.0
  C  C15  1  0.78807000  0.23029000  0.05071000  1.0
  C  C16  1  0.75729000  0.69453000  0.09916000  1.0
  C  C17  1  0.61470000  0.19499000  0.37341000  1.0
  C  C18  1  0.70756000  0.70365000  0.81057000  1.0
  C  C19  1  0.45250000  0.11434000  0.89347000  1.0
  C  C20  1  0.74007000  0.34772000  0.33246000  1.0
  C  C21  1  0.01430000  0.39761000  0.33189000  1.0
  C  C22  1  0.12733000  0.57583000  0.14112000  1.0
  C  C23  1  0.28975000  0.20877000  0.21183000  1.0
  C  C24  1  0.66013000  0.31469000  0.28474000  1.0
  C  C25  1  0.29251000  0.70398000  0.31132000  1.0
  C  C26  1  0.67607000  0.85159000  0.83771000  1.0
  C  C27  1  0.33989000  0.31465000  0.78481000  1.0
  C  C28  1  0.77804000  0.81096000  0.38047000  1.0
  C  C29  1  0.25993000  0.65227000  0.66754000  1.0
  C  C30  1  0.87442000  0.29565000  0.03397000  1.0
  C  C31  1  0.94486000  0.72247000  0.34413000  1.0
  C  C32  1  0.54757000  0.11450000  0.39346000  1.0
  C  C33  1  0.04857000  0.68117000  0.91287000  1.0
  C  C34  1  0.24812000  0.32172000  0.30803000  1.0
  C  C35  1  0.26004000  0.34774000  0.83254000  1.0
  C  C36  1  0.72785000  0.35336000  0.73641000  1.0
  C  C37  1  0.67631000  0.14761000  0.66221000  1.0
  C  C38  1  0.75902000  0.76504000  0.66933000  1.0
  C  C39  1  0.02592000  0.54478000  0.39679000  1.0
  C  C40  1  0.75188000  0.67828000  0.69197000  1.0
  C  C41  1  0.04871000  0.31904000  0.58695000  1.0
  C  C42  1  0.68003000  0.87794000  0.36375000  1.0
  C  C43  1  0.13477000  0.50290000  0.10815000  1.0
  C  C44  1  0.14279000  0.21283000  0.67207000  1.0
  C  C45  1  0.26207000  0.17856000  0.28222000  1.0
  C  C46  1  0.98570000  0.60239000  0.66810000  1.0
  C  C47  1  0.09291000  0.44706000  0.83849000  1.0
  C  C48  1  0.73806000  0.17884000  0.78194000  1.0
  C  C49  1  0.40129000  0.76145000  0.69485000  1.0
  C  C50  1  0.01414000  0.60199000  0.16838000  1.0
  C  C51  1  0.73793000  0.82143000  0.71777000  1.0
  C  C52  1  0.38525000  0.19483000  0.87344000  1.0
  C  C53  1  0.71025000  0.79123000  0.78817000  1.0
  C  C54  1  0.24806000  0.67747000  0.19304000  1.0
  C  C55  1  0.29243000  0.29635000  0.18943000  1.0
  C  C56  1  0.94501000  0.27739000  0.15607000  1.0
  C  C57  1  0.73995000  0.65226000  0.16746000  1.0
  C  C58  1  0.77807000  0.18904000  0.11988000  1.0
  C  C59  1  0.75193000  0.32253000  0.80696000  1.0
  C  C60  1  0.27199000  0.35304000  0.23760000  1.0
  C  C61  1  0.12730000  0.42370000  0.35938000  1.0
  C  C62  1  0.09272000  0.55315000  0.66148000  1.0
  C  C63  1  0.91038000  0.47938000  0.12971000  1.0
  C  C64  1  0.31997000  0.12205000  0.63625000  1.0
  C  C65  1  0.31988000  0.87800000  0.86358000  1.0
  C  C66  1  0.02600000  0.45492000  0.10345000  1.0
  C  C67  1  0.38530000  0.80501000  0.62659000  1.0
  C  C68  1  0.78808000  0.76967000  0.44965000  1.0
  C  C69  1  0.24097000  0.23495000  0.33067000  1.0
  C  C70  1  0.40120000  0.23843000  0.80518000  1.0
  C  C71  1  0.71036000  0.20849000  0.71140000  1.0
  C  C72  1  0.12557000  0.70435000  0.96602000  1.0
  C  C73  1  0.33986000  0.68530000  0.71526000  1.0
  C  C74  1  0.08950000  0.47950000  0.62979000  1.0
  C  C75  1  0.32393000  0.14840000  0.16229000  1.0
  C  C76  1  0.14269000  0.78720000  0.82756000  1.0
  C  C77  1  0.85730000  0.21279000  0.17243000  1.0
  C  C78  1  0.59871000  0.23855000  0.30514000  1.0
  C  C79  1  0.21193000  0.76971000  0.94929000  1.0
  C  C80  1  0.66011000  0.68534000  0.21519000  1.0
  C  C81  1  0.86523000  0.49709000  0.89185000  1.0
  C  C82  1  0.91049000  0.52050000  0.37021000  1.0
  C  C83  1  0.30637000  0.77022000  0.57891000  1.0
  C  C84  1  0.22192000  0.81096000  0.88011000  1.0
  C  C85  1  0.98585000  0.39801000  0.83161000  1.0
  C  C86  1  0.70748000  0.29602000  0.68867000  1.0
  C  C87  1  0.69366000  0.77035000  0.07888000  1.0
  C  C88  1  0.85720000  0.78717000  0.32792000  1.0
  C  C89  1  0.86545000  0.50348000  0.60753000  1.0
  C  C90  1  0.72800000  0.64695000  0.76240000  1.0
  C  C91  1  0.21191000  0.23033000  0.55035000  1.0
  C  C92  1  0.75912000  0.23585000  0.82984000  1.0
  C  C93  1  0.24271000  0.30546000  0.90083000  1.0
  C  C94  1  0.24088000  0.76415000  0.17016000  1.0
  C  C95  1  0.87269000  0.57629000  0.64062000  1.0
  C  C96  1  0.61474000  0.80517000  0.12656000  1.0
  C  C97  1  0.30633000  0.22964000  0.92112000  1.0
  C  C98  1  0.59880000  0.76156000  0.19482000  1.0
  C  C99  1  0.75735000  0.30550000  0.40077000  1.0
  C  C100  1  0.08961000  0.52062000  0.87029000  1.0
  C  C101  1  0.26194000  0.82116000  0.21806000  1.0
  C  C102  1  0.97400000  0.54508000  0.89655000  1.0
  C  C103  1  0.54750000  0.88565000  0.10652000  1.0
  C  C104  1  0.69363000  0.22978000  0.42109000  1.0
  C  C105  1  0.05513000  0.27752000  0.65586000  1.0
  C  C106  1  0.90708000  0.55293000  0.16151000  1.0
  C  C107  1  0.05498000  0.72261000  0.84393000  1.0
  C  C108  1  0.90728000  0.44685000  0.33852000  1.0
  O  O1  1  0.65711000  0.90287000  0.29876000  1.0
  O  O2  1  0.79355000  0.57463000  0.19090000  1.0
  O  O3  1  0.45588000  0.07778000  0.95741000  1.0
  O  O4  1  0.23824000  0.37820000  0.35757000  1.0
  O  O5  1  0.54411000  0.92221000  0.04259000  1.0
  O  O6  1  0.37338000  0.09633000  0.58355000  1.0
  O  O7  1  0.34948000  0.07069000  0.18729000  1.0
  O  O8  1  0.96175000  0.61602000  0.93058000  1.0
  O  O9  1  0.34950000  0.92979000  0.31235000  1.0
  O  O10  1  0.37310000  0.90363000  0.91636000  1.0
  O  O11  1  0.65708000  0.09685000  0.20135000  1.0
  O  O12  1  0.33126000  0.17340000  0.09664000  1.0
  O  O13  1  0.23812000  0.62148000  0.14303000  1.0
  O  O14  1  0.65052000  0.92930000  0.81270000  1.0
  O  O15  1  0.03825000  0.38398000  0.06941000  1.0
  O  O16  1  0.51297000  0.07931000  0.84686000  1.0
  O  O17  1  0.03821000  0.61582000  0.43066000  1.0
  O  O18  1  0.48716000  0.07938000  0.34689000  1.0
  O  O19  1  0.20645000  0.42536000  0.80910000  1.0
  O  O20  1  0.62689000  0.09637000  0.08364000  1.0
  O  O21  1  0.45576000  0.92189000  0.54258000  1.0
  O  O22  1  0.20624000  0.57471000  0.69096000  1.0
  O  O23  1  0.65049000  0.07021000  0.68764000  1.0
  O  O24  1  0.66924000  0.17160000  0.59637000  1.0
  O  O25  1  0.33076000  0.82840000  0.40363000  1.0
  O  O26  1  0.79376000  0.42529000  0.30904000  1.0
  O  O27  1  0.51284000  0.92061000  0.65311000  1.0
  O  O28  1  0.34289000  0.09713000  0.70124000  1.0
  O  O29  1  0.66874000  0.82659000  0.90336000  1.0
  O  O30  1  0.54423000  0.07811000  0.45742000  1.0
  O  O31  1  0.34292000  0.90315000  0.79864000  1.0
  O  O32  1  0.62662000  0.90367000  0.41645000  1.0
  O  O33  1  0.76175000  0.62180000  0.64243000  1.0
  O  O34  1  0.48702000  0.92068000  0.15313000  1.0
  O  O35  1  0.96178000  0.38417000  0.56934000  1.0
  O  O36  1  0.76188000  0.37851000  0.85697000  1.0
