# generated using pymatgen
data_Cu2H11C22NO8
_symmetry_space_group_name_H-M   'P 1'
_cell_length_a   18.59690522
_cell_length_b   18.60746000
_cell_length_c   24.16979000
_cell_angle_alpha   90.00000000
_cell_angle_beta   90.00000000
_cell_angle_gamma   119.98148681
_symmetry_Int_Tables_number   1
_chemical_formula_structural   Cu2H11C22NO8
_chemical_formula_sum   'Cu12 H66 C132 N6 O48'
_cell_volume   7244.56424902
_cell_formula_units_Z   6
loop_
 _symmetry_equiv_pos_site_id
 _symmetry_equiv_pos_as_xyz
  1  'x, y, z'
loop_
 _atom_site_type_symbol
 _atom_site_label
 _atom_site_symmetry_multiplicity
 _atom_site_fract_x
 _atom_site_fract_y
 _atom_site_fract_z
 _atom_site_occupancy
  Cu  Cu1  1  0.52224000  0.04447000  0.04088000  1.0
  Cu  Cu2  1  0.95549000  0.47776000  0.04087000  1.0
  Cu  Cu3  1  0.52227000  0.47776000  0.04087000  1.0
  Cu  Cu4  1  0.47776000  0.95552000  0.54088000  1.0
  Cu  Cu5  1  0.04451000  0.52224000  0.54087000  1.0
  Cu  Cu6  1  0.47773000  0.52224000  0.54087000  1.0
  Cu  Cu7  1  0.04451000  0.52224000  0.95913000  1.0
  Cu  Cu8  1  0.47776000  0.95552000  0.95912000  1.0
  Cu  Cu9  1  0.47773000  0.52224000  0.95913000  1.0
  Cu  Cu10  1  0.95549000  0.47776000  0.45913000  1.0
  Cu  Cu11  1  0.52224000  0.04447000  0.45912000  1.0
  Cu  Cu12  1  0.52227000  0.47776000  0.45913000  1.0
  H  H1  1  0.29678000  0.93506000  0.14031000  1.0
  H  H2  1  0.06484000  0.36170000  0.14033000  1.0
  H  H3  1  0.63831000  0.70320000  0.14034000  1.0
  H  H4  1  0.70322000  0.06494000  0.64031000  1.0
  H  H5  1  0.93515000  0.63829000  0.64032000  1.0
  H  H6  1  0.36169000  0.29680000  0.64034000  1.0
  H  H7  1  0.93511000  0.29680000  0.85966000  1.0
  H  H8  1  0.36172000  0.06494000  0.85969000  1.0
  H  H9  1  0.70314000  0.63829000  0.85968000  1.0
  H  H10  1  0.06489000  0.70320000  0.35966000  1.0
  H  H11  1  0.63828000  0.93506000  0.35969000  1.0
  H  H12  1  0.29686000  0.36171000  0.35968000  1.0
  H  H13  1  0.70322000  0.06494000  0.85969000  1.0
  H  H14  1  0.93515000  0.63829000  0.85968000  1.0
  H  H15  1  0.36169000  0.29680000  0.85966000  1.0
  H  H16  1  0.29678000  0.93506000  0.35969000  1.0
  H  H17  1  0.06485000  0.36171000  0.35968000  1.0
  H  H18  1  0.63831000  0.70320000  0.35966000  1.0
  H  H19  1  0.06489000  0.70320000  0.14034000  1.0
  H  H20  1  0.63828000  0.93506000  0.14031000  1.0
  H  H21  1  0.29686000  0.36171000  0.14032000  1.0
  H  H22  1  0.93511000  0.29680000  0.64034000  1.0
  H  H23  1  0.36172000  0.06494000  0.64031000  1.0
  H  H24  1  0.70314000  0.63829000  0.64032000  1.0
  H  H25  1  0.23803000  0.76200000  0.00642000  1.0
  H  H26  1  0.23486000  0.76513000  0.21397000  1.0
  H  H27  1  0.09393000  0.90606000  0.16089000  1.0
  H  H28  1  0.23801000  0.47602000  0.00644000  1.0
  H  H29  1  0.23482000  0.46965000  0.21397000  1.0
  H  H30  1  0.09396000  0.18792000  0.16089000  1.0
  H  H31  1  0.52397000  0.76200000  0.00642000  1.0
  H  H32  1  0.53027000  0.76513000  0.21397000  1.0
  H  H33  1  0.81213000  0.90606000  0.16089000  1.0
  H  H34  1  0.76197000  0.23800000  0.50642000  1.0
  H  H35  1  0.76514000  0.23487000  0.71397000  1.0
  H  H36  1  0.90607000  0.09394000  0.66089000  1.0
  H  H37  1  0.76199000  0.52398000  0.50644000  1.0
  H  H38  1  0.76517000  0.53034000  0.71397000  1.0
  H  H39  1  0.90604000  0.81208000  0.66089000  1.0
  H  H40  1  0.47603000  0.23800000  0.50642000  1.0
  H  H41  1  0.46973000  0.23486000  0.71397000  1.0
  H  H42  1  0.18786000  0.09393000  0.66089000  1.0
  H  H43  1  0.76197000  0.23800000  0.99358000  1.0
  H  H44  1  0.76514000  0.23487000  0.78603000  1.0
  H  H45  1  0.90607000  0.09394000  0.83911000  1.0
  H  H46  1  0.47603000  0.23800000  0.99358000  1.0
  H  H47  1  0.46973000  0.23486000  0.78603000  1.0
  H  H48  1  0.18786000  0.09393000  0.83911000  1.0
  H  H49  1  0.76199000  0.52398000  0.99356000  1.0
  H  H50  1  0.76517000  0.53034000  0.78603000  1.0
  H  H51  1  0.90604000  0.81208000  0.83911000  1.0
  H  H52  1  0.23803000  0.76200000  0.49358000  1.0
  H  H53  1  0.23486000  0.76513000  0.28603000  1.0
  H  H54  1  0.09393000  0.90606000  0.33911000  1.0
  H  H55  1  0.52397000  0.76200000  0.49358000  1.0
  H  H56  1  0.53027000  0.76513000  0.28603000  1.0
  H  H57  1  0.81213000  0.90606000  0.33911000  1.0
  H  H58  1  0.23801000  0.47602000  0.49356000  1.0
  H  H59  1  0.23482000  0.46965000  0.28603000  1.0
  H  H60  1  0.09396000  0.18792000  0.33911000  1.0
  H  H61  1  0.05471000  0.94528000  0.25000000  1.0
  H  H62  1  0.05477000  0.10954000  0.25000000  1.0
  H  H63  1  0.89057000  0.94528000  0.25000000  1.0
  H  H64  1  0.94529000  0.05472000  0.75000000  1.0
  H  H65  1  0.94523000  0.89046000  0.75000000  1.0
  H  H66  1  0.10942000  0.05470000  0.75000000  1.0
  C  C1  1  0.27575000  0.85432000  0.07076000  1.0
  C  C2  1  0.35817000  0.90979000  0.04473000  1.0
  C  C3  1  0.25376000  0.87616000  0.12096000  1.0
  C  C4  1  0.14563000  0.42140000  0.07078000  1.0
  C  C5  1  0.09018000  0.44838000  0.04474000  1.0
  C  C6  1  0.12378000  0.37757000  0.12096000  1.0
  C  C7  1  0.57858000  0.72423000  0.07077000  1.0
  C  C8  1  0.55162000  0.64182000  0.04474000  1.0
  C  C9  1  0.62241000  0.74622000  0.12097000  1.0
  C  C10  1  0.72425000  0.14568000  0.57076000  1.0
  C  C11  1  0.64183000  0.09021000  0.54473000  1.0
  C  C12  1  0.74624000  0.12384000  0.62096000  1.0
  C  C13  1  0.85437000  0.57860000  0.57078000  1.0
  C  C14  1  0.90982000  0.55162000  0.54475000  1.0
  C  C15  1  0.87621000  0.62241000  0.62096000  1.0
  C  C16  1  0.42142000  0.27576000  0.57077000  1.0
  C  C17  1  0.44838000  0.35818000  0.54474000  1.0
  C  C18  1  0.37759000  0.25378000  0.62097000  1.0
  C  C19  1  0.85434000  0.27576000  0.92923000  1.0
  C  C20  1  0.90980000  0.35818000  0.95526000  1.0
  C  C21  1  0.87619000  0.25378000  0.87903000  1.0
  C  C22  1  0.42143000  0.14568000  0.92924000  1.0
  C  C23  1  0.44838000  0.09021000  0.95527000  1.0
  C  C24  1  0.37760000  0.12384000  0.87904000  1.0
  C  C25  1  0.72423000  0.57859000  0.92922000  1.0
  C  C26  1  0.64180000  0.55162000  0.95525000  1.0
  C  C27  1  0.74621000  0.62242000  0.87904000  1.0
  C  C28  1  0.14565000  0.72423000  0.42923000  1.0
  C  C29  1  0.09020000  0.64182000  0.45526000  1.0
  C  C30  1  0.12381000  0.74622000  0.37903000  1.0
  C  C31  1  0.57857000  0.85432000  0.42924000  1.0
  C  C32  1  0.55162000  0.90979000  0.45527000  1.0
  C  C33  1  0.62240000  0.87616000  0.37904000  1.0
  C  C34  1  0.27577000  0.42140000  0.42922000  1.0
  C  C35  1  0.35820000  0.44838000  0.45526000  1.0
  C  C36  1  0.25379000  0.37758000  0.37904000  1.0
  C  C37  1  0.72425000  0.14568000  0.92924000  1.0
  C  C38  1  0.64183000  0.09021000  0.95527000  1.0
  C  C39  1  0.74624000  0.12384000  0.87904000  1.0
  C  C40  1  0.85437000  0.57860000  0.92922000  1.0
  C  C41  1  0.90982000  0.55162000  0.95525000  1.0
  C  C42  1  0.87621000  0.62241000  0.87904000  1.0
  C  C43  1  0.42142000  0.27576000  0.92923000  1.0
  C  C44  1  0.44838000  0.35818000  0.95526000  1.0
  C  C45  1  0.37759000  0.25378000  0.87903000  1.0
  C  C46  1  0.27575000  0.85432000  0.42924000  1.0
  C  C47  1  0.35817000  0.90979000  0.45527000  1.0
  C  C48  1  0.25376000  0.87616000  0.37904000  1.0
  C  C49  1  0.14563000  0.42140000  0.42922000  1.0
  C  C50  1  0.09018000  0.44838000  0.45526000  1.0
  C  C51  1  0.12378000  0.37757000  0.37904000  1.0
  C  C52  1  0.57858000  0.72423000  0.42923000  1.0
  C  C53  1  0.55162000  0.64182000  0.45526000  1.0
  C  C54  1  0.62241000  0.74622000  0.37903000  1.0
  C  C55  1  0.14565000  0.72423000  0.07077000  1.0
  C  C56  1  0.09020000  0.64182000  0.04474000  1.0
  C  C57  1  0.12381000  0.74622000  0.12097000  1.0
  C  C58  1  0.57857000  0.85432000  0.07076000  1.0
  C  C59  1  0.55162000  0.90979000  0.04473000  1.0
  C  C60  1  0.62240000  0.87616000  0.12096000  1.0
  C  C61  1  0.27577000  0.42140000  0.07078000  1.0
  C  C62  1  0.35820000  0.44838000  0.04474000  1.0
  C  C63  1  0.25379000  0.37758000  0.12096000  1.0
  C  C64  1  0.85434000  0.27576000  0.57077000  1.0
  C  C65  1  0.90980000  0.35818000  0.54474000  1.0
  C  C66  1  0.87619000  0.25378000  0.62097000  1.0
  C  C67  1  0.42143000  0.14568000  0.57076000  1.0
  C  C68  1  0.44838000  0.09021000  0.54473000  1.0
  C  C69  1  0.37760000  0.12384000  0.62096000  1.0
  C  C70  1  0.72423000  0.57859000  0.57078000  1.0
  C  C71  1  0.64180000  0.55162000  0.54475000  1.0
  C  C72  1  0.74621000  0.62242000  0.62096000  1.0
  C  C73  1  0.22115000  0.77884000  0.04532000  1.0
  C  C74  1  0.17712000  0.82283000  0.14608000  1.0
  C  C75  1  0.15384000  0.84612000  0.19941000  1.0
  C  C76  1  0.11043000  0.88956000  0.20016000  1.0
  C  C77  1  0.22114000  0.44229000  0.04532000  1.0
  C  C78  1  0.17714000  0.35428000  0.14608000  1.0
  C  C79  1  0.15386000  0.30772000  0.19941000  1.0
  C  C80  1  0.11046000  0.22092000  0.20016000  1.0
  C  C81  1  0.55769000  0.77884000  0.04532000  1.0
  C  C82  1  0.64571000  0.82284000  0.14608000  1.0
  C  C83  1  0.69228000  0.84612000  0.19941000  1.0
  C  C84  1  0.77913000  0.88956000  0.20016000  1.0
  C  C85  1  0.77884000  0.22115000  0.54532000  1.0
  C  C86  1  0.82287000  0.17716000  0.64608000  1.0
  C  C87  1  0.84616000  0.15388000  0.69941000  1.0
  C  C88  1  0.88957000  0.11044000  0.70015000  1.0
  C  C89  1  0.77885000  0.55770000  0.54532000  1.0
  C  C90  1  0.82286000  0.64572000  0.64608000  1.0
  C  C91  1  0.84614000  0.69228000  0.69941000  1.0
  C  C92  1  0.88954000  0.77908000  0.70015000  1.0
  C  C93  1  0.44231000  0.22115000  0.54532000  1.0
  C  C94  1  0.35429000  0.17716000  0.64608000  1.0
  C  C95  1  0.30772000  0.15388000  0.69941000  1.0
  C  C96  1  0.22087000  0.11044000  0.70015000  1.0
  C  C97  1  0.77885000  0.22116000  0.95468000  1.0
  C  C98  1  0.82287000  0.17716000  0.85392000  1.0
  C  C99  1  0.84616000  0.15388000  0.80059000  1.0
  C  C100  1  0.88957000  0.11044000  0.79985000  1.0
  C  C101  1  0.44231000  0.22115000  0.95468000  1.0
  C  C102  1  0.35429000  0.17716000  0.85392000  1.0
  C  C103  1  0.30772000  0.15388000  0.80059000  1.0
  C  C104  1  0.22087000  0.11044000  0.79985000  1.0
  C  C105  1  0.77885000  0.55770000  0.95468000  1.0
  C  C106  1  0.82286000  0.64572000  0.85392000  1.0
  C  C107  1  0.84614000  0.69228000  0.80059000  1.0
  C  C108  1  0.88954000  0.77908000  0.79985000  1.0
  C  C109  1  0.22115000  0.77884000  0.45469000  1.0
  C  C110  1  0.17712000  0.82283000  0.35392000  1.0
  C  C111  1  0.15384000  0.84612000  0.30059000  1.0
  C  C112  1  0.11043000  0.88956000  0.29985000  1.0
  C  C113  1  0.55769000  0.77884000  0.45469000  1.0
  C  C114  1  0.64571000  0.82284000  0.35392000  1.0
  C  C115  1  0.69228000  0.84612000  0.30059000  1.0
  C  C116  1  0.77913000  0.88956000  0.29985000  1.0
  C  C117  1  0.22114000  0.44229000  0.45468000  1.0
  C  C118  1  0.17714000  0.35428000  0.35392000  1.0
  C  C119  1  0.15386000  0.30772000  0.30059000  1.0
  C  C120  1  0.11046000  0.22092000  0.29985000  1.0
  C  C121  1  0.17612000  0.82385000  0.25000000  1.0
  C  C122  1  0.08846000  0.91155000  0.25000000  1.0
  C  C123  1  0.17612000  0.35224000  0.25000000  1.0
  C  C124  1  0.08849000  0.17698000  0.25000000  1.0
  C  C125  1  0.64773000  0.82385000  0.25000000  1.0
  C  C126  1  0.82309000  0.91155000  0.25000000  1.0
  C  C127  1  0.82388000  0.17614000  0.75000000  1.0
  C  C128  1  0.91154000  0.08845000  0.75000000  1.0
  C  C129  1  0.82388000  0.64776000  0.75000000  1.0
  C  C130  1  0.91151000  0.82302000  0.75000000  1.0
  C  C131  1  0.35226000  0.17614000  0.75000000  1.0
  C  C132  1  0.17691000  0.08845000  0.75000000  1.0
  N  N1  1  0.21896000  0.78104000  0.25000000  1.0
  N  N2  1  0.21892000  0.43784000  0.25000000  1.0
  N  N3  1  0.56208000  0.78104000  0.25000000  1.0
  N  N4  1  0.78104000  0.21896000  0.75000000  1.0
  N  N5  1  0.78108000  0.56215000  0.75000000  1.0
  N  N6  1  0.43792000  0.21896000  0.75000000  1.0
  O  O1  1  0.41092000  0.97252000  0.07276000  1.0
  O  O2  1  0.37001000  0.88938000  0.99642000  1.0
  O  O3  1  0.02742000  0.43841000  0.07277000  1.0
  O  O4  1  0.11063000  0.48064000  0.99645000  1.0
  O  O5  1  0.56160000  0.58907000  0.07277000  1.0
  O  O6  1  0.51936000  0.62999000  0.99644000  1.0
  O  O7  1  0.58908000  0.02748000  0.57276000  1.0
  O  O8  1  0.62999000  0.11062000  0.49642000  1.0
  O  O9  1  0.97258000  0.56159000  0.57277000  1.0
  O  O10  1  0.88936000  0.51935000  0.49645000  1.0
  O  O11  1  0.43840000  0.41093000  0.57277000  1.0
  O  O12  1  0.48063000  0.37000000  0.49643000  1.0
  O  O13  1  0.97253000  0.41093000  0.92723000  1.0
  O  O14  1  0.88937000  0.37000000  0.00357000  1.0
  O  O15  1  0.43840000  0.02748000  0.92724000  1.0
  O  O16  1  0.48063000  0.11061000  0.00358000  1.0
  O  O17  1  0.58901000  0.56159000  0.92723000  1.0
  O  O18  1  0.62999000  0.51935000  0.00355000  1.0
  O  O19  1  0.02746000  0.58906000  0.42723000  1.0
  O  O20  1  0.11063000  0.62999000  0.50356000  1.0
  O  O21  1  0.56160000  0.97252000  0.42724000  1.0
  O  O22  1  0.51937000  0.88938000  0.50358000  1.0
  O  O23  1  0.41099000  0.43841000  0.42723000  1.0
  O  O24  1  0.37001000  0.48064000  0.50355000  1.0
  O  O25  1  0.58908000  0.02748000  0.92724000  1.0
  O  O26  1  0.62999000  0.11062000  0.00358000  1.0
  O  O27  1  0.97258000  0.56159000  0.92723000  1.0
  O  O28  1  0.88936000  0.51935000  0.00355000  1.0
  O  O29  1  0.43840000  0.41093000  0.92723000  1.0
  O  O30  1  0.48063000  0.37000000  0.00357000  1.0
  O  O31  1  0.41092000  0.97252000  0.42724000  1.0
  O  O32  1  0.37001000  0.88938000  0.50358000  1.0
  O  O33  1  0.02742000  0.43841000  0.42723000  1.0
  O  O34  1  0.11063000  0.48064000  0.50355000  1.0
  O  O35  1  0.56160000  0.58907000  0.42723000  1.0
  O  O36  1  0.51936000  0.62999000  0.50356000  1.0
  O  O37  1  0.02746000  0.58906000  0.07277000  1.0
  O  O38  1  0.11063000  0.62999000  0.99644000  1.0
  O  O39  1  0.56160000  0.97252000  0.07276000  1.0
  O  O40  1  0.51937000  0.88938000  0.99642000  1.0
  O  O41  1  0.41099000  0.43841000  0.07277000  1.0
  O  O42  1  0.37001000  0.48064000  0.99645000  1.0
  O  O43  1  0.97253000  0.41093000  0.57277000  1.0
  O  O44  1  0.88937000  0.37000000  0.49643000  1.0
  O  O45  1  0.43840000  0.02748000  0.57276000  1.0
  O  O46  1  0.48063000  0.11061000  0.49642000  1.0
  O  O47  1  0.58901000  0.56159000  0.57277000  1.0
  O  O48  1  0.62999000  0.51935000  0.49645000  1.0
