# generated using pymatgen
data_CdH4C8O5
_symmetry_space_group_name_H-M   'P 1'
_cell_length_a   7.29151000
_cell_length_b   19.00348000
_cell_length_c   19.34114000
_cell_angle_alpha   89.83995000
_cell_angle_beta   87.74430000
_cell_angle_gamma   89.89110000
_symmetry_Int_Tables_number   1
_chemical_formula_structural   CdH4C8O5
_chemical_formula_sum   'Cd8 H32 C64 O40'
_cell_volume   2677.89556801
_cell_formula_units_Z   8
loop_
 _symmetry_equiv_pos_site_id
 _symmetry_equiv_pos_as_xyz
  1  'x, y, z'
loop_
 _atom_site_type_symbol
 _atom_site_label
 _atom_site_symmetry_multiplicity
 _atom_site_fract_x
 _atom_site_fract_y
 _atom_site_fract_z
 _atom_site_occupancy
  Cd  Cd0  1  0.56873000  0.73451000  0.65349000  1
  Cd  Cd1  1  0.00508000  0.75936000  0.68433000  1
  Cd  Cd2  1  0.92935000  0.23262000  0.84615000  1
  Cd  Cd3  1  0.49376000  0.25998000  0.81642000  1
  Cd  Cd4  1  0.43127000  0.26549000  0.34651000  1
  Cd  Cd5  1  0.99492000  0.24064000  0.31567000  1
  Cd  Cd6  1  0.07065000  0.76738000  0.15385000  1
  Cd  Cd7  1  0.50624000  0.74002000  0.18359000  1
  H  H8  1  0.12526000  0.92422000  0.77758000  1
  H  H9  1  0.39381000  0.82495000  0.34733000  1
  H  H10  1  0.89333000  0.99459000  0.78413000  1
  H  H11  1  0.41734000  0.86215000  0.76196000  1
  H  H12  1  0.35303000  0.07488000  0.83572000  1
  H  H13  1  0.62213000  0.78557000  0.41531000  1
  H  H14  1  0.10863000  0.82050000  0.28373000  1
  H  H15  1  0.14255000  0.82627000  0.50431000  1
  H  H16  1  0.37389000  0.42429000  0.72223000  1
  H  H17  1  0.10787000  0.32942000  0.15189000  1
  H  H18  1  0.60407000  0.49577000  0.71566000  1
  H  H19  1  0.07942000  0.36271000  0.73942000  1
  H  H20  1  0.14533000  0.57549000  0.66501000  1
  H  H21  1  0.87629000  0.28212000  0.08398000  1
  H  H22  1  0.39442000  0.32132000  0.21609000  1
  H  H23  1  0.35726000  0.32937000  0.99562000  1
  H  H24  1  0.87474000  0.07578000  0.22243000  1
  H  H25  1  0.60619000  0.17505000  0.65267000  1
  H  H26  1  0.10667000  0.00541000  0.21588000  1
  H  H27  1  0.58267000  0.13785000  0.23805000  1
  H  H28  1  0.64697000  0.92512000  0.16428000  1
  H  H29  1  0.37787000  0.21443000  0.58469000  1
  H  H30  1  0.89137000  0.17950000  0.71627000  1
  H  H31  1  0.85745000  0.17373000  0.49569000  1
  H  H32  1  0.62611000  0.57571000  0.27777000  1
  H  H33  1  0.89213000  0.67058000  0.84811000  1
  H  H34  1  0.39593000  0.50423000  0.28434000  1
  H  H35  1  0.92058000  0.63729000  0.26058000  1
  H  H36  1  0.85467000  0.42451000  0.33499000  1
  H  H37  1  0.12371000  0.71788000  0.91602000  1
  H  H38  1  0.60558000  0.67867000  0.78391000  1
  H  H39  1  0.64274000  0.67063000  0.00438000  1
  C  C40  1  0.78659000  0.86259000  0.74531000  1
  C  C41  1  0.66794000  0.92159000  0.77018000  1
  C  C42  1  0.74645000  0.98601000  0.78815000  1
  C  C43  1  0.47648000  0.91267000  0.77502000  1
  C  C44  1  0.63192000  0.04082000  0.81212000  1
  C  C45  1  0.44150000  0.03226000  0.81716000  1
  C  C46  1  0.36255000  0.96853000  0.79719000  1
  C  C47  1  0.71294000  0.10961000  0.83096000  1
  C  C48  1  0.79847000  0.79525000  0.53959000  1
  C  C49  1  0.87360000  0.80491000  0.46700000  1
  C  C50  1  0.76770000  0.79662000  0.40873000  1
  C  C51  1  0.85361000  0.80071000  0.34221000  1
  C  C52  1  0.04307000  0.81427000  0.33465000  1
  C  C53  1  0.14750000  0.82316000  0.39333000  1
  C  C54  1  0.06133000  0.81896000  0.45907000  1
  C  C55  1  0.73899000  0.78749000  0.28189000  1
  C  C56  1  0.71140000  0.36361000  0.75519000  1
  C  C57  1  0.82959000  0.42272000  0.73031000  1
  C  C58  1  0.75104000  0.48724000  0.71190000  1
  C  C59  1  0.02105000  0.41342000  0.72585000  1
  C  C60  1  0.86571000  0.54215000  0.68823000  1
  C  C61  1  0.05617000  0.53316000  0.68365000  1
  C  C62  1  0.13520000  0.46909000  0.70348000  1
  C  C63  1  0.78475000  0.61124000  0.66945000  1
  C  C64  1  0.70025000  0.29394000  0.96022000  1
  C  C65  1  0.62533000  0.30412000  0.03255000  1
  C  C66  1  0.73128000  0.29450000  0.09057000  1
  C  C67  1  0.64592000  0.29911000  0.15702000  1
  C  C68  1  0.45793000  0.31492000  0.16492000  1
  C  C69  1  0.35404000  0.32611000  0.10646000  1
  C  C70  1  0.43880000  0.32074000  0.04063000  1
  C  C71  1  0.76080000  0.28583000  0.21715000  1
  C  C72  1  0.21341000  0.13741000  0.25469000  1
  C  C73  1  0.33206000  0.07841000  0.22982000  1
  C  C74  1  0.25355000  0.01399000  0.21186000  1
  C  C75  1  0.52352000  0.08733000  0.22498000  1
  C  C76  1  0.36809000  0.95917000  0.18788000  1
  C  C77  1  0.55850000  0.96773000  0.18285000  1
  C  C78  1  0.63745000  0.03147000  0.20281000  1
  C  C79  1  0.28706000  0.89039000  0.16904000  1
  C  C80  1  0.20154000  0.20475000  0.46042000  1
  C  C81  1  0.12640000  0.19509000  0.53301000  1
  C  C82  1  0.23230000  0.20337000  0.59127000  1
  C  C83  1  0.14639000  0.19929000  0.65779000  1
  C  C84  1  0.95693000  0.18573000  0.66536000  1
  C  C85  1  0.85250000  0.17684000  0.60667000  1
  C  C86  1  0.93867000  0.18104000  0.54093000  1
  C  C87  1  0.26101000  0.21251000  0.71811000  1
  C  C88  1  0.28860000  0.63639000  0.24481000  1
  C  C89  1  0.17041000  0.57728000  0.26969000  1
  C  C90  1  0.24896000  0.51276000  0.28811000  1
  C  C91  1  0.97895000  0.58658000  0.27415000  1
  C  C92  1  0.13429000  0.45785000  0.31177000  1
  C  C93  1  0.94383000  0.46684000  0.31635000  1
  C  C94  1  0.86480000  0.53091000  0.29652000  1
  C  C95  1  0.21526000  0.38876000  0.33055000  1
  C  C96  1  0.29975000  0.70606000  0.03978000  1
  C  C97  1  0.37468000  0.69587000  0.96746000  1
  C  C98  1  0.26872000  0.70550000  0.90944000  1
  C  C99  1  0.35408000  0.70089000  0.84298000  1
  C  C100  1  0.54207000  0.68508000  0.83509000  1
  C  C101  1  0.64596000  0.67389000  0.89354000  1
  C  C102  1  0.56120000  0.67926000  0.95938000  1
  C  C103  1  0.23920000  0.71417000  0.78286000  1
  O  O104  1  0.71206000  0.80240000  0.73280000  1
  O  O105  1  0.96028000  0.87016000  0.73648000  1
  O  O106  1  0.88567000  0.11940000  0.81969000  1
  O  O107  1  0.60839000  0.15742000  0.85773000  1
  O  O108  1  0.90745000  0.80886000  0.58747000  1
  O  O109  1  0.17673000  0.96509000  0.80191000  1
  O  O110  1  0.63147000  0.77371000  0.54889000  1
  O  O111  1  0.56506000  0.79179000  0.28855000  1
  O  O112  1  0.80684000  0.76637000  0.22159000  1
  O  O113  1  0.33043000  0.83664000  0.39192000  1
  O  O114  1  0.78701000  0.30342000  0.76753000  1
  O  O115  1  0.53755000  0.37112000  0.76398000  1
  O  O116  1  0.61235000  0.62147000  0.68135000  1
  O  O117  1  0.88884000  0.65903000  0.64218000  1
  O  O118  1  0.59245000  0.30888000  0.91217000  1
  O  O119  1  0.32102000  0.46527000  0.69808000  1
  O  O120  1  0.86579000  0.27077000  0.95113000  1
  O  O121  1  0.93416000  0.29164000  0.20970000  1
  O  O122  1  0.69416000  0.26391000  0.27755000  1
  O  O123  1  0.17298000  0.34331000  0.10831000  1
  O  O124  1  0.28794000  0.19759000  0.26720000  1
  O  O125  1  0.03973000  0.12984000  0.26352000  1
  O  O126  1  0.11433000  0.88060000  0.18032000  1
  O  O127  1  0.39161000  0.84258000  0.14227000  1
  O  O128  1  0.09255000  0.19114000  0.41253000  1
  O  O129  1  0.82327000  0.03491000  0.19809000  1
  O  O130  1  0.36853000  0.22629000  0.45112000  1
  O  O131  1  0.43494000  0.20821000  0.71145000  1
  O  O132  1  0.19316000  0.23362000  0.77842000  1
  O  O133  1  0.66957000  0.16336000  0.60808000  1
  O  O134  1  0.21299000  0.69658000  0.23247000  1
  O  O135  1  0.46245000  0.62888000  0.23603000  1
  O  O136  1  0.38765000  0.37853000  0.31865000  1
  O  O137  1  0.11116000  0.34097000  0.35782000  1
  O  O138  1  0.40755000  0.69112000  0.08783000  1
  O  O139  1  0.67898000  0.53473000  0.30192000  1
  O  O140  1  0.13421000  0.72923000  0.04887000  1
  O  O141  1  0.06584000  0.70836000  0.79030000  1
  O  O142  1  0.30584000  0.73609000  0.72245000  1
  O  O143  1  0.82702000  0.65669000  0.89169000  1
