# generated using pymatgen
data_H11(C10N)2
_symmetry_space_group_name_H-M   'P 1'
_cell_length_a   34.81348313
_cell_length_b   34.81348313
_cell_length_c   34.81348313
_cell_angle_alpha   60.00000000
_cell_angle_beta   60.00000000
_cell_angle_gamma   60.00000000
_symmetry_Int_Tables_number   1
_chemical_formula_structural   H11(C10N)2
_chemical_formula_sum   'H132 C240 N24'
_cell_volume   29835.09559253
_cell_formula_units_Z   12
loop_
 _symmetry_equiv_pos_site_id
 _symmetry_equiv_pos_as_xyz
  1  'x, y, z'
loop_
 _atom_site_type_symbol
 _atom_site_label
 _atom_site_symmetry_multiplicity
 _atom_site_fract_x
 _atom_site_fract_y
 _atom_site_fract_z
 _atom_site_occupancy
  C  1  1  0.85691575  0.85667825  0.78795725  1
  C  3  1  0.78796000  0.85692800  0.85663650  1
  C  5  1  0.85665425  0.78798275  0.85690275  1
  C  7  1  0.73961000  0.87978450  0.87922800  1
  C  8  1  0.71427850  0.92556900  0.85530450  1
  C  9  1  0.66555950  0.94618950  0.87565850  1
  C  10  1  0.64061025  0.92203275  0.92112475  1
  C  11  1  0.66557675  0.87694775  0.94582925  1
  C  12  1  0.71429425  0.85642725  0.92537125  1
  C  13  1  0.87977950  0.87927400  0.73961200  1
  C  14  1  0.85642200  0.92541450  0.71429500  1
  C  15  1  0.87694800  0.94588250  0.66558000  1
  C  16  1  0.92202200  0.92116950  0.64060300  1
  C  17  1  0.94617575  0.87570875  0.66555875  1
  C  18  1  0.92556075  0.85535025  0.71427775  1
  C  19  1  0.87924725  0.73962525  0.87974025  1
  C  20  1  0.92541125  0.71433425  0.85639875  1
  C  21  1  0.94591275  0.66563125  0.87692875  1
  C  22  1  0.92118675  0.64061225  0.92195875  1
  C  23  1  0.87568200  0.66554700  0.94609100  1
  C  24  1  0.85531825  0.71427275  0.92550175  1
  C  37  1  0.48405300  0.78796300  0.85667700  1
  C  39  1  0.48407700  0.85665200  0.85691700  1
  C  41  1  0.48409250  0.85689450  0.78797150  1
  C  43  1  0.48698775  0.87923625  0.87977525  1
  C  44  1  0.49040500  0.85532400  0.92558050  1
  C  45  1  0.49820175  0.87565325  0.94618325  1
  C  46  1  0.50184100  0.92111800  0.92203450  1
  C  47  1  0.49722450  0.94584600  0.87696050  1
  C  48  1  0.48952525  0.92537475  0.85642075  1
  C  49  1  0.48697450  0.73960950  0.87927450  1
  C  50  1  0.48944875  0.71431725  0.92543825  1
  C  51  1  0.49715575  0.66560725  0.94592725  1
  C  52  1  0.50185225  0.64059825  0.92120475  1
  C  53  1  0.49831625  0.66551975  0.87569075  1
  C  54  1  0.49051375  0.71425075  0.85533825  1
  C  55  1  0.48699050  0.87973400  0.73962050  1
  C  56  1  0.48943950  0.85639150  0.71434050  1
  C  57  1  0.49716725  0.87689075  0.66562775  1
  C  58  1  0.50185425  0.92192575  0.64062475  1
  C  59  1  0.49824025  0.94610775  0.66554025  1
  C  60  1  0.49054825  0.92548275  0.71425175  1
  C  73  1  0.78796675  0.48405525  0.85691575  1
  C  75  1  0.85664425  0.48409675  0.78795925  1
  C  77  1  0.85691275  0.48405825  0.85666275  1
  C  79  1  0.87923750  0.48701150  0.73960400  1
  C  80  1  0.85531725  0.49048475  0.71426775  1
  C  81  1  0.87567325  0.49823375  0.66554775  1
  C  82  1  0.92113600  0.50187900  0.64060300  1
  C  83  1  0.94583675  0.49729325  0.66557325  1
  C  84  1  0.92537575  0.48955025  0.71429125  1
  C  85  1  0.73962025  0.48694375  0.87977775  1
  C  86  1  0.71429875  0.48949925  0.85641025  1
  C  87  1  0.66558275  0.49722225  0.87693425  1
  C  88  1  0.64061950  0.50181950  0.92201650  1
  C  89  1  0.66557325  0.49814775  0.94618525  1
  C  90  1  0.71429200  0.49039900  0.92556700  1
  C  91  1  0.87974550  0.48698350  0.87926150  1
  C  92  1  0.85640800  0.48942100  0.92543900  1
  C  93  1  0.87692700  0.49709300  0.94595200  1
  C  94  1  0.92193875  0.50184025  0.92120775  1
  C  95  1  0.94608725  0.49829975  0.87569425  1
  C  96  1  0.92549175  0.49054425  0.85532175  1
  C  109  1  0.85668875  0.85694175  0.48403325  1
  C  111  1  0.85692750  0.78799050  0.48405650  1
  C  113  1  0.78798075  0.85667825  0.48407625  1
  C  115  1  0.87978175  0.73963775  0.48696525  1
  C  116  1  0.92557275  0.71431325  0.49041475  1
  C  117  1  0.94616225  0.66558475  0.49821025  1
  C  118  1  0.92203750  0.64062550  0.50180950  1
  C  119  1  0.87697300  0.66562000  0.49716500  1
  C  120  1  0.85643525  0.71432875  0.48947025  1
  C  121  1  0.87928925  0.87977525  0.48695375  1
  C  122  1  0.92544875  0.85642025  0.48944275  1
  C  123  1  0.94594275  0.87692675  0.49715325  1
  C  124  1  0.92119875  0.92195925  0.50184575  1
  C  125  1  0.87570050  0.94612050  0.49828250  1
  C  126  1  0.85535550  0.92553900  0.49047700  1
  C  127  1  0.73962850  0.87928850  0.48698250  1
  C  128  1  0.71433750  0.92544450  0.48947550  1
  C  129  1  0.66562125  0.94592525  0.49721175  1
  C  130  1  0.64063100  0.92121800  0.50185100  1
  C  131  1  0.66555725  0.87575525  0.49819175  1
  C  132  1  0.71426600  0.85536000  0.49051400  1
  C  145  1  0.50874825  0.13611575  0.20484625  1
  C  147  1  0.50871850  0.13586700  0.13616900  1
  C  149  1  0.50873675  0.20481075  0.13590225  1
  C  151  1  0.50580975  0.11301475  0.11357725  1
  C  152  1  0.50233900  0.06722900  0.13750300  1
  C  153  1  0.49458825  0.04660925  0.11715275  1
  C  154  1  0.49093800  0.07078300  0.07169400  1
  C  155  1  0.49553025  0.11586325  0.04697575  1
  C  156  1  0.50327475  0.13637675  0.06743525  1
  C  157  1  0.50586050  0.11352100  0.25319250  1
  C  158  1  0.50331025  0.06738475  0.27851425  1
  C  159  1  0.49558675  0.04691625  0.32723025  1
  C  160  1  0.49098350  0.07163550  0.35219350  1
  C  161  1  0.49465100  0.11708750  0.32724250  1
  C  162  1  0.50239900  0.13744000  0.27852200  1
  C  163  1  0.50580475  0.25317075  0.11306625  1
  C  164  1  0.50333250  0.27846050  0.13640950  1
  C  165  1  0.49565925  0.32716525  0.11587975  1
  C  166  1  0.49095325  0.35218225  0.07084575  1
  C  167  1  0.49451975  0.32724775  0.04671125  1
  C  168  1  0.50227350  0.27852550  0.06730900  1
  C  181  1  0.13585900  0.20484600  0.13612500  1
  C  183  1  0.20481400  0.13616000  0.13588300  1
  C  185  1  0.13612400  0.13590900  0.20482700  1
  C  187  1  0.25316925  0.11357575  0.11302625  1
  C  188  1  0.27848900  0.13749500  0.06723400  1
  C  189  1  0.32721800  0.11715900  0.04664050  1
  C  190  1  0.35217850  0.07168000  0.07077050  1
  C  191  1  0.32719425  0.04695925  0.11583575  1
  C  192  1  0.27848250  0.06743050  0.13637350  1
  C  193  1  0.11302375  0.25320225  0.11352825  1
  C  194  1  0.13637750  0.27849750  0.06736850  1
  C  195  1  0.11587075  0.32720925  0.04687825  1
  C  196  1  0.07084025  0.35218875  0.07162675  1
  C  197  1  0.04668075  0.32728675  0.11712525  1
  C  198  1  0.06726200  0.27855400  0.13746700  1
  C  199  1  0.11351450  0.11306750  0.25317750  1
  C  200  1  0.06735125  0.13642075  0.27846975  1
  C  201  1  0.04686800  0.11591900  0.32718400  1
  C  202  1  0.07160225  0.07087675  0.35215875  1
  C  203  1  0.11706675  0.04667325  0.32724725  1
  C  204  1  0.13744825  0.06730575  0.27853575  1
  C  217  1  0.13612225  0.50874725  0.13590075  1
  C  219  1  0.13587675  0.50871425  0.20485725  1
  C  221  1  0.20481750  0.50873850  0.13615950  1
  C  223  1  0.11302650  0.50580400  0.25321050  1
  C  224  1  0.06724125  0.50233075  0.27854375  1
  C  225  1  0.04662125  0.49457975  0.32726375  1
  C  226  1  0.07080125  0.49092975  0.35219275  1
  C  227  1  0.11587850  0.49552500  0.32724150  1
  C  228  1  0.13638900  0.50327000  0.27852500  1
  C  229  1  0.11352900  0.50585650  0.11303800  1
  C  230  1  0.06739375  0.50330125  0.13640425  1
  C  231  1  0.04692825  0.49557675  0.11587775  1
  C  232  1  0.07164600  0.49097700  0.07079800  1
  C  233  1  0.11709650  0.49464750  0.04663150  1
  C  234  1  0.13744750  0.50239800  0.06725000  1
  C  235  1  0.25317575  0.50581075  0.11356525  1
  C  236  1  0.27846225  0.50335125  0.06739775  1
  C  237  1  0.32716700  0.49567850  0.04689400  1
  C  238  1  0.35218850  0.49095750  0.07161950  1
  C  239  1  0.32725800  0.49451100  0.11712900  1
  C  240  1  0.27853200  0.50227900  0.13749700  1
  C  253  1  0.20483725  0.13587275  0.50874925  1
  C  255  1  0.13614575  0.20482125  0.50873775  1
  C  257  1  0.13590275  0.13613525  0.50871825  1
  C  259  1  0.11355450  0.25317350  0.50583350  1
  C  260  1  0.13747200  0.27849500  0.50238550  1
  C  261  1  0.11713025  0.32722375  0.49459175  1
  C  262  1  0.07164500  0.35218300  0.49099300  1
  C  263  1  0.04692975  0.32719225  0.49563425  1
  C  264  1  0.06740450  0.27848350  0.50332950  1
  C  265  1  0.25319250  0.11303950  0.50582700  1
  C  266  1  0.27848525  0.13638575  0.50334575  1
  C  267  1  0.32719500  0.11586800  0.49564250  1
  C  268  1  0.35221100  0.07082500  0.49096000  1
  C  269  1  0.32727775  0.04670425  0.49450225  1
  C  270  1  0.27854700  0.06728000  0.50229900  1
  C  271  1  0.11306200  0.11352600  0.50581800  1
  C  272  1  0.13641825  0.06736575  0.50332925  1
  C  273  1  0.11591775  0.04688225  0.49559975  1
  C  274  1  0.07087500  0.07161900  0.49093100  1
  C  275  1  0.04666975  0.11708125  0.49458425  1
  C  276  1  0.06729450  0.13745550  0.50230100  1
  C  1153  1  0.48143350  0.01136550  0.01136250  1
  C  1154  1  0.50040825  0.02657625  0.02748875  1
  C  1155  1  0.47209000  0.05539000  0.05609900  1
  C  1156  1  0.42292475  0.06986225  0.06986675  1
  C  1157  1  0.40200850  0.05609050  0.05538950  1
  C  1158  1  0.43112300  0.02748200  0.02657300  1
  C  1162  1  0.51135450  0.98145050  0.98144150  1
  C  1163  1  0.56166600  0.96624200  0.96532000  1
  C  1164  1  0.59077800  0.93742700  0.93670900  1
  C  1165  1  0.56985800  0.92295300  0.92293900  1
  C  1166  1  0.52069400  0.93672350  0.93740900  1
  C  1167  1  0.49237750  0.96532850  0.96622850  1
  C  1189  1  0.01134900  0.48144200  0.48144600  1
  C  1190  1  0.02744675  0.43112925  0.50043525  1
  C  1191  1  0.05606325  0.40201075  0.47212875  1
  C  1192  1  0.06985350  0.42292250  0.42296350  1
  C  1193  1  0.05539700  0.47208700  0.40203200  1
  C  1194  1  0.02658500  0.50041100  0.43113300  1
  C  1198  1  0.98143675  0.51136825  0.51135475  1
  C  1199  1  0.96533100  0.49239800  0.56166800  1
  C  1200  1  0.93672750  0.52072350  0.59076850  1
  C  1201  1  0.92295725  0.56988675  0.56983825  1
  C  1202  1  0.93741700  0.59079800  0.52067300  1
  C  1203  1  0.96621700  0.56168000  0.49236600  1
  C  1225  1  0.01137100  0.01137600  0.48142150  1
  C  1226  1  0.02665825  0.02742675  0.50039625  1
  C  1227  1  0.05544800  0.05606300  0.47207600  1
  C  1228  1  0.06987000  0.06987900  0.42291350  1
  C  1229  1  0.05605075  0.05545125  0.40199525  1
  C  1230  1  0.02741450  0.02666050  0.43110950  1
  C  1234  1  0.98145725  0.98145575  0.51134375  1
  C  1235  1  0.96619275  0.96539225  0.56165825  1
  C  1236  1  0.93740175  0.93675775  0.59077325  1
  C  1237  1  0.92296475  0.92294475  0.56985825  1
  C  1238  1  0.93676175  0.93738425  0.52069425  1
  C  1239  1  0.96539400  0.96617800  0.49237200  1
  C  1261  1  0.48144175  0.48143175  0.01136525  1
  C  1262  1  0.43112925  0.50041375  0.02742075  1
  C  1263  1  0.40201675  0.47209925  0.05605825  1
  C  1264  1  0.42293625  0.42293625  0.06986575  1
  C  1265  1  0.47210000  0.40201200  0.05543000  1
  C  1266  1  0.50041825  0.43111925  0.02663875  1
  C  1270  1  0.51136250  0.51134600  0.98144850  1
  C  1271  1  0.49238575  0.56166025  0.96538425  1
  C  1272  1  0.52070400  0.59076700  0.93675600  1
  C  1273  1  0.56986825  0.56984325  0.92295775  1
  C  1274  1  0.59078675  0.52067825  0.93739125  1
  C  1275  1  0.56167500  0.49236500  0.96618600  1
  C  1297  1  0.01135450  0.48144650  0.01136250  1
  C  1298  1  0.02742100  0.50042900  0.02662600  1
  C  1299  1  0.05604900  0.47211600  0.05542400  1
  C  1300  1  0.06985650  0.42295150  0.06986250  1
  C  1301  1  0.05541550  0.40202650  0.05606550  1
  C  1302  1  0.02662550  0.43113350  0.02742850  1
  C  1306  1  0.98143750  0.51136250  0.98144350  1
  C  1307  1  0.96538500  0.56167600  0.96616100  1
  C  1308  1  0.93674625  0.59078375  0.93737375  1
  C  1309  1  0.92293725  0.56986075  0.92294225  1
  C  1310  1  0.93736925  0.52069475  0.93675425  1
  C  1311  1  0.96615325  0.49238075  0.96539525  1
  C  1333  1  0.48145900  0.01134800  0.48145000  1
  C  1334  1  0.50044000  0.02741000  0.43113700  1
  C  1335  1  0.47212650  0.05603650  0.40202500  1
  C  1336  1  0.42296225  0.06984375  0.42294475  1
  C  1337  1  0.40203850  0.05540650  0.47210900  1
  C  1338  1  0.43114625  0.02662075  0.50042675  1
  C  1342  1  0.51137600  0.98143700  0.51136800  1
  C  1343  1  0.56168950  0.96539750  0.49238850  1
  C  1344  1  0.59079875  0.93676775  0.52070625  1
  C  1345  1  0.56987550  0.92294950  0.56987050  1
  C  1346  1  0.52071100  0.93736550  0.59079200  1
  C  1347  1  0.49239600  0.96614500  0.56168000  1
  H  25  1  0.85764700  0.97794850  0.64805300  1
  H  26  1  0.82299525  0.94396125  0.73052975  1
  H  27  1  0.97793725  0.85608925  0.64801775  1
  H  28  1  0.94369750  0.82168600  0.73052600  1
  H  29  1  0.94401600  0.73061500  0.82303200  1
  H  30  1  0.97802600  0.64811950  0.85766850  1
  H  31  1  0.82160425  0.73047175  0.94359625  1
  H  32  1  0.85603750  0.64797350  0.97779750  1
  H  33  1  0.73054200  0.82301500  0.94392900  1
  H  34  1  0.64805425  0.85767925  0.97792775  1
  H  35  1  0.64801500  0.97796050  0.85605350  1
  H  36  1  0.73052775  0.94370725  0.82164275  1
  H  61  1  0.50175775  0.64810425  0.97806525  1
  H  62  1  0.48790975  0.73060375  0.94404925  1
  H  63  1  0.50378625  0.64795875  0.85605575  1
  H  64  1  0.48992600  0.73045200  0.82162700  1
  H  65  1  0.48793800  0.82301700  0.73063000  1
  H  66  1  0.50179925  0.85763975  0.64812175  1
  H  67  1  0.48994275  0.94358425  0.73046075  1
  H  68  1  0.50380900  0.97778700  0.64796150  1
  H  69  1  0.48813000  0.94394200  0.82300900  1
  H  70  1  0.50195275  0.97792875  0.85768725  1
  H  71  1  0.50360100  0.85604000  0.97794300  1
  H  72  1  0.48975050  0.82163550  0.94369350  1
  H  97  1  0.64805300  0.50199900  0.85763000  1
  H  98  1  0.73053125  0.48815775  0.82297775  1
  H  99  1  0.64803200  0.50353300  0.97795300  1
  H  100  1  0.73054275  0.48966325  0.94371075  1
  H  101  1  0.82305200  0.48787650  0.94404850  1
  H  102  1  0.85767425  0.50173375  0.97807225  1
  H  103  1  0.94359450  0.48995250  0.82161250  1
  H  104  1  0.97778800  0.50382300  0.85605300  1
  H  105  1  0.94393200  0.48815400  0.73054300  1
  H  106  1  0.97793350  0.50198850  0.64805350  1
  H  107  1  0.85607300  0.50360900  0.64800000  1
  H  108  1  0.82165725  0.48975175  0.73051525  1
  H  133  1  0.97807625  0.85768725  0.50176875  1
  H  134  1  0.94405525  0.82305775  0.48791025  1
  H  135  1  0.85607250  0.97785300  0.50374400  1
  H  136  1  0.82164975  0.94364125  0.48987375  1
  H  137  1  0.73061725  0.94402275  0.48800075  1
  H  138  1  0.64810925  0.97803725  0.50186975  1
  H  139  1  0.73048975  0.82167675  0.48984925  1
  H  140  1  0.64798650  0.85609750  0.50372550  1
  H  141  1  0.82303200  0.73057400  0.48805600  1
  H  142  1  0.85770150  0.64809150  0.50187350  1
  H  143  1  0.97791375  0.64803375  0.50363125  1
  H  144  1  0.94367825  0.73053275  0.48978725  1
  H  169  1  0.49081475  0.01485625  0.34476075  1
  H  170  1  0.50465475  0.04884325  0.26228125  1
  H  171  1  0.48926250  0.13670100  0.34478300  1
  H  172  1  0.50313225  0.17110025  0.26226975  1
  H  173  1  0.50485200  0.26218050  0.16977550  1
  H  174  1  0.49099750  0.34467700  0.13514150  1
  H  175  1  0.50288800  0.26231950  0.04920000  1
  H  176  1  0.48902025  0.34481875  0.01499825  1
  H  177  1  0.50467250  0.16978800  0.04887850  1
  H  178  1  0.49083400  0.13513100  0.01487800  1
  H  179  1  0.48920875  0.01483825  0.13675425  1
  H  180  1  0.50307150  0.04908800  0.17116200  1
  H  205  1  0.13510700  0.34472000  0.01474400  1
  H  206  1  0.16973750  0.26220950  0.04875950  1
  H  207  1  0.01495050  0.34485350  0.13675550  1
  H  208  1  0.04916175  0.26234575  0.17117325  1
  H  209  1  0.04876675  0.16979525  0.26218325  1
  H  210  1  0.01474925  0.13517075  0.34469875  1
  H  211  1  0.17114400  0.04920000  0.26231500  1
  H  212  1  0.13673025  0.01498675  0.34482375  1
  H  213  1  0.26224075  0.04885575  0.16977725  1
  H  214  1  0.34472500  0.01487100  0.13510600  1
  H  215  1  0.34476650  0.13678050  0.01488900  1
  H  216  1  0.26226575  0.17118825  0.04912725  1
  H  241  1  0.01486875  0.49080125  0.13518225  1
  H  242  1  0.04885200  0.50464600  0.16983400  1
  H  243  1  0.13671125  0.48926025  0.01486375  1
  H  244  1  0.17110650  0.50313300  0.04910650  1
  H  245  1  0.26217925  0.50487675  0.04879175  1
  H  246  1  0.34467575  0.49102475  0.01477925  1
  H  247  1  0.26233400  0.50286450  0.17120750  1
  H  248  1  0.34483350  0.48899700  0.13677250  1
  H  249  1  0.16980050  0.50466950  0.26227050  1
  H  250  1  0.13514500  0.49083050  0.34476700  1
  H  251  1  0.01484950  0.48920250  0.34481350  1
  H  252  1  0.04909875  0.50306325  0.26229325  1
  H  277  1  0.34469675  0.13511025  0.49103475  1
  H  278  1  0.26220225  0.16974875  0.50487475  1
  H  279  1  0.34483750  0.01497350  0.48903900  1
  H  280  1  0.26234625  0.04917925  0.50289275  1
  H  281  1  0.16979350  0.04878050  0.50482500  1
  H  282  1  0.13516950  0.01476450  0.49095000  1
  H  283  1  0.04919775  0.17116025  0.50290775  1
  H  284  1  0.01498600  0.13674600  0.48902750  1
  H  285  1  0.04883175  0.26223825  0.50474325  1
  H  286  1  0.01483825  0.34472075  0.49092675  1
  H  287  1  0.13675275  0.34477325  0.48917075  1
  H  288  1  0.17116875  0.26227625  0.50301275  1
  H  1159  1  0.53568925  0.01699925  0.01889225  1
  H  1160  1  0.41401825  0.01888975  0.01698825  1
  H  1161  1  0.40206275  0.09072125  0.09072675  1
  H  1168  1  0.57877075  0.97581925  0.97391975  1
  H  1169  1  0.59071875  0.90209025  0.90208125  1
  H  1170  1  0.45709750  0.97391850  0.97581050  1
  H  1195  1  0.01882725  0.41403075  0.53571775  1
  H  1196  1  0.01703150  0.53569150  0.41401850  1
  H  1197  1  0.09071500  0.40205700  0.40210900  1
  H  1204  1  0.97393700  0.45711900  0.57878200  1
  H  1205  1  0.90210475  0.59075125  0.59069275  1
  H  1206  1  0.97577550  0.57877950  0.45708250  1
  H  1231  1  0.01716225  0.01875475  0.53567725  1
  H  1232  1  0.01873950  0.01716050  0.41400350  1
  H  1233  1  0.09072975  0.09073875  0.40205075  1
  H  1240  1  0.97570725  0.97405575  0.57876275  1
  H  1241  1  0.90211400  0.90207550  0.59072200  1
  H  1242  1  0.97405400  0.97568500  0.45709200  1
  H  1267  1  0.41402200  0.53569550  0.01875700  1
  H  1268  1  0.53569950  0.41401000  0.01712900  1
  H  1269  1  0.40207400  0.40207600  0.09072900  1
  H  1276  1  0.45710375  0.57876925  0.97404425  1
  H  1277  1  0.59073100  0.59070100  0.90210900  1
  H  1278  1  0.57877950  0.45708350  0.97570750  1
  H  1303  1  0.01876725  0.53571075  0.01710375  1
  H  1304  1  0.01711400  0.41402300  0.01876800  1
  H  1305  1  0.09072350  0.40209450  0.09071450  1
  H  1312  1  0.97405150  0.57878450  0.97566600  1
  H  1313  1  0.90207375  0.59071975  0.90208525  1
  H  1314  1  0.97565325  0.45709875  0.97407125  1
  H  1339  1  0.53572175  0.01875325  0.41402975  1
  H  1340  1  0.41403675  0.01712025  0.53570825  1
  H  1341  1  0.40210350  0.09071050  0.40208300  1
  H  1348  1  0.57879825  0.97407375  0.45710875  1
  H  1349  1  0.59073625  0.90208975  0.59073125  1
  H  1350  1  0.45711300  0.97562800  0.57879000  1
  N  2  1  0.81168525  0.87815775  0.81142325  1
  N  4  1  0.81142775  0.81169775  0.87812025  1
  N  6  1  0.87813550  0.81145500  0.81167450  1
  N  38  1  0.48434525  0.81143375  0.87814775  1
  N  40  1  0.48436775  0.87812625  0.81168475  1
  N  42  1  0.48435100  0.81167300  0.81145050  1
  N  74  1  0.81143150  0.48435350  0.81168050  1
  N  76  1  0.87812825  0.48436675  0.81143175  1
  N  78  1  0.81168425  0.48433175  0.87814175  1
  N  110  1  0.87815900  0.81170750  0.48432350  1
  N  112  1  0.81169325  0.81145875  0.48435125  1
  N  114  1  0.81146200  0.87816050  0.48433550  1
  N  146  1  0.50846125  0.11463725  0.18138075  1
  N  148  1  0.50843900  0.18109700  0.11468600  1
  N  150  1  0.50846275  0.18133825  0.18112975  1
  N  182  1  0.18109300  0.18137800  0.11465500  1
  N  184  1  0.18134500  0.11468200  0.18111300  1
  N  186  1  0.11463900  0.18113300  0.18135100  1
  N  218  1  0.11464575  0.50845575  0.18113325  1
  N  220  1  0.18110650  0.50843800  0.18138750  1
  N  222  1  0.18134400  0.50846350  0.11467900  1
  N  254  1  0.18136475  0.18110525  0.50846375  1
  N  256  1  0.11467050  0.18135250  0.50844850  1
  N  258  1  0.18112725  0.11465375  0.50845225  1
