# generated using pymatgen
data_H8C12N5
_symmetry_space_group_name_H-M   'P 1'
_cell_length_a   10.02026667
_cell_length_b   31.50580000
_cell_length_c   31.50580000
_cell_angle_alpha   120.00000000
_cell_angle_beta   90.00000000
_cell_angle_gamma   90.00000000
_symmetry_Int_Tables_number   1
_chemical_formula_structural   H8C12N5
_chemical_formula_sum   'H48 C72 N30'
_cell_volume   8613.72365556
_cell_formula_units_Z   6
loop_
 _symmetry_equiv_pos_site_id
 _symmetry_equiv_pos_as_xyz
  1  'x, y, z'
loop_
 _atom_site_type_symbol
 _atom_site_label
 _atom_site_symmetry_multiplicity
 _atom_site_fract_x
 _atom_site_fract_y
 _atom_site_fract_z
 _atom_site_occupancy
  C  1  1  0.01335700  0.02768600  0.51313500  1
  C  2  1  0.04086000  0.05589200  0.56408300  1
  C  3  1  0.02959100  0.10732400  0.59017800  1
  C  4  1  0.00885700  0.13328000  0.56453400  1
  C  5  1  0.99175300  0.10583300  0.51275100  1
  C  6  1  0.98441800  0.05432300  0.48882100  1
  C  9  1  0.01356300  0.97531300  0.48777700  1
  C  10  1  0.98474800  0.94862900  0.51204800  1
  C  11  1  0.99222500  0.89711500  0.48807700  1
  C  12  1  0.00935100  0.86972200  0.43629000  1
  C  13  1  0.03029400  0.89572500  0.41071100  1
  C  14  1  0.04146900  0.94715700  0.43685000  1
  C  27  1  0.01350900  0.48804700  0.97438000  1
  C  28  1  0.04137300  0.51080600  0.94621300  1
  C  29  1  0.03021400  0.48549700  0.89477900  1
  C  30  1  0.00942900  0.43390400  0.86879000  1
  C  31  1  0.99229200  0.40953200  0.89620200  1
  C  32  1  0.98462000  0.43709500  0.94770800  1
  C  35  1  0.01336900  0.51506400  0.02675100  1
  C  36  1  0.98435100  0.56600800  0.05339200  1
  C  37  1  0.99182400  0.59358300  0.10490000  1
  C  38  1  0.00883700  0.56922900  0.13233700  1
  C  39  1  0.02956700  0.51763000  0.10637100  1
  C  40  1  0.04105300  0.49231900  0.05494700  1
  C  53  1  0.01360700  0.48879900  0.51404400  1
  C  54  1  0.04142700  0.43786500  0.49126500  1
  C  55  1  0.03011000  0.41171500  0.51654500  1
  C  56  1  0.00911800  0.43729500  0.56812600  1
  C  57  1  0.99202300  0.48908200  0.59252300  1
  C  58  1  0.98471100  0.51306800  0.56499500  1
  C  61  1  0.01353800  0.51417800  0.48705200  1
  C  62  1  0.98453900  0.48990200  0.43610900  1
  C  63  1  0.99205400  0.51385600  0.40855100  1
  C  64  1  0.00924200  0.56563500  0.43291900  1
  C  65  1  0.03010300  0.59124100  0.48450700  1
  C  66  1  0.04120100  0.56512200  0.50982300  1
  C  79  1  0.96158600  0.80859300  0.28202800  1
  C  80  1  0.85860500  0.77988700  0.24984800  1
  C  81  1  0.89133600  0.73789100  0.20516900  1
  C  82  1  0.02646200  0.72360800  0.19515600  1
  C  87  1  0.93567800  0.84463600  0.33062400  1
  C  89  1  0.06670900  0.67633000  0.15974200  1
  C  91  1  0.96131400  0.47614200  0.19362100  1
  C  92  1  0.85839500  0.47275700  0.22240800  1
  C  93  1  0.89115700  0.46978900  0.26424900  1
  C  94  1  0.02634100  0.47399700  0.27848100  1
  C  99  1  0.93530700  0.48889600  0.15773300  1
  C  101  1  0.06670200  0.48593700  0.32576600  1
  C  103  1  0.96152400  0.71990600  0.52594400  1
  C  104  1  0.85857300  0.75208900  0.52938900  1
  C  105  1  0.89133800  0.79674900  0.53204000  1
  C  106  1  0.02647200  0.80674500  0.52776500  1
  C  111  1  0.93557100  0.67132400  0.51343700  1
  C  113  1  0.06670900  0.84212300  0.51585300  1
  C  115  1  0.96145600  0.19461600  0.71892900  1
  C  116  1  0.85855400  0.22340100  0.75111200  1
  C  117  1  0.89133600  0.26523300  0.79592400  1
  C  118  1  0.02652100  0.27946700  0.80593900  1
  C  123  1  0.93541900  0.15872100  0.67028700  1
  C  125  1  0.06689800  0.32674600  0.84129200  1
  C  127  1  0.96150600  0.52698300  0.80760400  1
  C  128  1  0.85851600  0.53044200  0.77889100  1
  C  129  1  0.89123400  0.53308800  0.73687400  1
  C  130  1  0.02635500  0.52880800  0.72258700  1
  C  135  1  0.93561800  0.51446700  0.84367600  1
  C  137  1  0.06652900  0.51686500  0.67528500  1
  C  139  1  0.96147500  0.28298600  0.47493900  1
  C  140  1  0.85848500  0.25084100  0.47156000  1
  C  141  1  0.89114100  0.20603100  0.46860600  1
  C  142  1  0.02629800  0.19597500  0.47281700  1
  C  147  1  0.93552900  0.33162700  0.48768100  1
  C  149  1  0.06656100  0.16063200  0.48477300  1
  H  7  1  0.06367700  0.03900200  0.58367100  1
  H  16  1  0.06410700  0.96408400  0.41728500  1
  H  17  1  0.97571600  0.80134100  0.42694500  1
  H  18  1  0.02620400  0.80039400  0.37694200  1
  H  19  1  0.97567600  0.20162900  0.57373300  1
  H  20  1  0.02607300  0.20265000  0.62378100  1
  H  21  1  0.96207000  0.03621600  0.45227100  1
  H  22  1  0.96229300  0.96669900  0.54858600  1
  H  33  1  0.06400500  0.54729900  0.96312700  1
  H  42  1  0.06371500  0.45583100  0.03804800  1
  H  43  1  0.97557600  0.62836100  0.20069000  1
  H  44  1  0.02595100  0.57932600  0.20170100  1
  H  45  1  0.97605700  0.37482800  0.80041600  1
  H  46  1  0.02633100  0.42389900  0.79945600  1
  H  47  1  0.96230300  0.41862300  0.96578800  1
  H  48  1  0.96215400  0.58446800  0.03529400  1
  H  59  1  0.06407600  0.41830700  0.45477600  1
  H  68  1  0.06402300  0.58467600  0.54630200  1
  H  69  1  0.97604500  0.57491800  0.37381600  1
  H  70  1  0.02640000  0.62494000  0.42288500  1
  H  71  1  0.97563800  0.42796200  0.62718400  1
  H  72  1  0.02628200  0.37798000  0.57814300  1
  H  73  1  0.96225400  0.54960700  0.58346100  1
  H  74  1  0.96227500  0.45335000  0.41763700  1
  H  84  1  0.81641000  0.71538000  0.18357800  1
  H  85  1  0.76042500  0.78793300  0.25951700  1
  H  88  1  0.84292700  0.84559200  0.34482500  1
  H  90  1  0.15843300  0.66465400  0.16420300  1
  H  96  1  0.81629600  0.47117600  0.28699200  1
  H  97  1  0.76021400  0.47472900  0.21459100  1
  H  100  1  0.84253600  0.50218700  0.15687000  1
  H  102  1  0.15846900  0.50205500  0.33739500  1
  H  108  1  0.81643900  0.81833800  0.53109700  1
  H  109  1  0.76038400  0.74243200  0.52777300  1
  H  112  1  0.84282600  0.65713900  0.50016800  1
  H  114  1  0.15852600  0.83770600  0.49978500  1
  H  120  1  0.81648000  0.28797400  0.81729000  1
  H  121  1  0.76037200  0.21558000  0.74133000  1
  H  124  1  0.84263100  0.15785500  0.65614700  1
  H  126  1  0.15864900  0.33837700  0.83679700  1
  H  132  1  0.81631000  0.53214300  0.71435200  1
  H  133  1  0.76034300  0.52882200  0.78694100  1
  H  136  1  0.84286500  0.50121300  0.84461400  1
  H  138  1  0.15838300  0.50083400  0.66360500  1
  H  144  1  0.81623000  0.18469800  0.47000000  1
  H  145  1  0.76032500  0.26065300  0.47352800  1
  H  148  1  0.84283700  0.34583500  0.50101900  1
  H  150  1  0.15831600  0.16510600  0.50089300  1
  N  8  1  0.00416300  0.18326800  0.58925600  1
  N  15  1  0.00446500  0.81973300  0.41148700  1
  N  23  1  0.03270000  0.87388100  0.36112600  1
  N  24  1  0.98392200  0.87661000  0.51698800  1
  N  25  1  0.98357100  0.12626300  0.48377100  1
  N  26  1  0.03202900  0.12921900  0.63977000  1
  N  34  1  0.00465600  0.40869400  0.81880100  1
  N  41  1  0.00407900  0.59447900  0.18232600  1
  N  49  1  0.03194100  0.48991400  0.12824300  1
  N  50  1  0.98368900  0.64299700  0.12535300  1
  N  51  1  0.98404800  0.36011800  0.87573100  1
  N  52  1  0.03268000  0.51320800  0.87290500  1
  N  60  1  0.00417800  0.41249200  0.59331000  1
  N  67  1  0.00444800  0.59041400  0.40770700  1
  N  75  1  0.03254900  0.64082700  0.51222000  1
  N  76  1  0.98380900  0.48490500  0.35913800  1
  N  77  1  0.98371000  0.51799300  0.64193900  1
  N  78  1  0.03230100  0.36212900  0.48876800  1
  N  83  1  0.11963200  0.75388900  0.22753700  1
  N  86  1  0.08959300  0.79417600  0.26801400  1
  N  95  1  0.11941400  0.47602200  0.24812900  1
  N  98  1  0.08932500  0.47630900  0.20789500  1
  N  107  1  0.11961300  0.77436300  0.52568500  1
  N  110  1  0.08954200  0.73390400  0.52552700  1
  N  119  1  0.11958000  0.24912100  0.77354800  1
  N  122  1  0.08947400  0.20889100  0.73302500  1
  N  131  1  0.11954200  0.52672600  0.75287300  1
  N  134  1  0.08951300  0.52656400  0.79317400  1
  N  143  1  0.11944500  0.22832700  0.47483200  1
  N  146  1  0.08945600  0.26884900  0.47510900  1
