# generated using pymatgen
data_H12C21N4
_symmetry_space_group_name_H-M   'P 1'
_cell_length_a   23.15880000
_cell_length_b   28.42970000
_cell_length_c   30.63720000
_cell_angle_alpha   89.98970000
_cell_angle_beta   90.00000000
_cell_angle_gamma   90.00000000
_symmetry_Int_Tables_number   1
_chemical_formula_structural   H12C21N4
_chemical_formula_sum   'H96 C168 N32'
_cell_volume   20171.46280247
_cell_formula_units_Z   8
loop_
 _symmetry_equiv_pos_site_id
 _symmetry_equiv_pos_as_xyz
  1  'x, y, z'
loop_
 _atom_site_type_symbol
 _atom_site_label
 _atom_site_symmetry_multiplicity
 _atom_site_fract_x
 _atom_site_fract_y
 _atom_site_fract_z
 _atom_site_occupancy
  C  2  1  0.99343100  0.35846600  0.33601900  1
  C  3  1  0.04556700  0.29812100  0.29521000  1
  C  4  1  0.09941600  0.35861800  0.33590800  1
  C  5  1  0.13253100  0.39219500  0.31288600  1
  C  6  1  0.18356500  0.41132300  0.33096700  1
  C  7  1  0.20262200  0.39812200  0.37315400  1
  C  8  1  0.16986500  0.36348200  0.39549800  1
  C  9  1  0.11956400  0.34399200  0.37722600  1
  C  10  1  0.96012800  0.39203400  0.31312700  1
  C  11  1  0.90903800  0.41091200  0.33128400  1
  C  12  1  0.89039200  0.39777000  0.37357800  1
  C  13  1  0.92336300  0.36311000  0.39578200  1
  C  14  1  0.97337000  0.34338000  0.37718700  1
  C  15  1  0.03070600  0.29770300  0.25057900  1
  C  16  1  0.02985300  0.25537700  0.22662100  1
  C  17  1  0.04452600  0.21165500  0.24607000  1
  C  18  1  0.05933200  0.21259400  0.29104500  1
  C  19  1  0.05943300  0.25481100  0.31521900  1
  C  33  1  0.99269300  0.52119100  0.63203400  1
  C  34  1  0.04655600  0.58182100  0.67253700  1
  C  35  1  0.09863900  0.52141600  0.63178900  1
  C  36  1  0.11840400  0.53622800  0.59045200  1
  C  37  1  0.16836300  0.51646700  0.57181100  1
  C  38  1  0.20158000  0.48205600  0.59412900  1
  C  39  1  0.18318200  0.46916100  0.63655700  1
  C  40  1  0.13217700  0.48809900  0.65478700  1
  C  41  1  0.97234000  0.53595300  0.59081400  1
  C  42  1  0.92211000  0.51636100  0.57253900  1
  C  43  1  0.88963500  0.48147500  0.59478200  1
  C  44  1  0.90888200  0.46811900  0.63687400  1
  C  45  1  0.95985000  0.48736000  0.65496000  1
  C  46  1  0.03295800  0.62508900  0.65234800  1
  C  47  1  0.03302500  0.66738200  0.67640000  1
  C  48  1  0.04757400  0.66845100  0.72141700  1
  C  49  1  0.06203200  0.62476900  0.74104100  1
  C  50  1  0.06117600  0.58236600  0.71721100  1
  C  64  1  0.59865500  0.35877300  0.63197300  1
  C  65  1  0.54630100  0.29842700  0.67257500  1
  C  66  1  0.49271900  0.35910000  0.63186200  1
  C  67  1  0.45901700  0.39208600  0.65511600  1
  C  68  1  0.40807300  0.41124900  0.63690600  1
  C  69  1  0.38964000  0.39861500  0.59441400  1
  C  70  1  0.42302200  0.36454800  0.57183900  1
  C  71  1  0.47326600  0.34506900  0.59019300  1
  C  72  1  0.63133800  0.39296200  0.65455100  1
  C  73  1  0.68250000  0.41176600  0.63646200  1
  C  74  1  0.70187000  0.39782700  0.59458400  1
  C  75  1  0.66953300  0.36255700  0.57270800  1
  C  76  1  0.61943300  0.34292600  0.59126100  1
  C  77  1  0.56220000  0.29771700  0.71699800  1
  C  78  1  0.56305900  0.25530000  0.74081900  1
  C  79  1  0.54734400  0.21179200  0.72143800  1
  C  80  1  0.53147100  0.21302300  0.67668200  1
  C  81  1  0.53137400  0.25532400  0.65263200  1
  C  95  1  0.59875600  0.52058200  0.33622100  1
  C  96  1  0.54605900  0.58209500  0.29516700  1
  C  97  1  0.49303000  0.52161300  0.33582900  1
  C  98  1  0.47050300  0.53900700  0.37545400  1
  C  99  1  0.42054800  0.51912600  0.39404900  1
  C  100  1  0.39003000  0.48216800  0.37312000  1
  C  101  1  0.41105900  0.46663900  0.33219900  1
  C  102  1  0.46223800  0.48556200  0.31424500  1
  C  103  1  0.61649900  0.53253500  0.37886600  1
  C  104  1  0.66667233  0.51295600  0.39719400  1
  C  105  1  0.70165000  0.48064900  0.37375000  1
  C  106  1  0.68472200  0.46997700  0.33042200  1
  C  107  1  0.63393500  0.48937500  0.31211800  1
  C  108  1  0.57070600  0.62360800  0.31233800  1
  C  109  1  0.57114700  0.66573600  0.28803700  1
  C  110  1  0.54567100  0.66885500  0.24594400  1
  C  111  1  0.52019000  0.62702400  0.22946700  1
  C  112  1  0.52097200  0.58454700  0.25325900  1
  C  126  1  0.99298600  0.85916400  0.83560000  1
  C  127  1  0.04651600  0.79840900  0.79490800  1
  C  128  1  0.09889800  0.85880700  0.83546900  1
  C  129  1  0.11994900  0.84271300  0.87602400  1
  C  130  1  0.16995200  0.86245700  0.89461900  1
  C  131  1  0.20193100  0.89807100  0.87291700  1
  C  132  1  0.18233500  0.91224600  0.83116500  1
  C  133  1  0.13122800  0.89335800  0.81306300  1
  C  134  1  0.97378400  0.84547000  0.87743700  1
  C  135  1  0.92354800  0.86498300  0.89576100  1
  C  136  1  0.88991300  0.89875900  0.87300500  1
  C  137  1  0.90812900  0.91106600  0.83036900  1
  C  138  1  0.95905500  0.89186100  0.81217200  1
  C  139  1  0.03078600  0.75540200  0.81469200  1
  C  140  1  0.03086400  0.71310700  0.79064300  1
  C  141  1  0.04755000  0.71175800  0.74605700  1
  C  142  1  0.06406200  0.75516900  0.72684700  1
  C  143  1  0.06320100  0.79759000  0.75065100  1
  C  157  1  0.99293000  0.02166000  0.13141300  1
  C  158  1  0.04535100  0.08197000  0.17214600  1
  C  159  1  0.09888700  0.02132600  0.13134000  1
  C  160  1  0.13282900  0.98866600  0.15480700  1
  C  161  1  0.18377900  0.96946400  0.13664700  1
  C  162  1  0.20200800  0.98173700  0.09400700  1
  C  163  1  0.16840200  0.01551900  0.07123000  1
  C  164  1  0.11814000  0.03503400  0.08952200  1
  C  165  1  0.96058800  0.98712900  0.15383400  1
  C  166  1  0.90949100  0.96821900  0.13573600  1
  C  167  1  0.88990200  0.98232800  0.09395600  1
  C  168  1  0.92189900  0.01791400  0.07222800  1
  C  169  1  0.97188800  0.03769600  0.09083000  1
  C  170  1  0.02884700  0.08261400  0.21644600  1
  C  171  1  0.02807000  0.12494700  0.24039700  1
  C  172  1  0.04449600  0.16843300  0.22129600  1
  C  173  1  0.06099900  0.16725800  0.17666500  1
  C  174  1  0.06099900  0.12505600  0.15247400  1
  C  188  1  0.59936500  0.85933400  0.13202000  1
  C  189  1  0.54596200  0.79919800  0.17257500  1
  C  190  1  0.49345300  0.85943500  0.13180000  1
  C  191  1  0.45930600  0.89221700  0.15493900  1
  C  192  1  0.40829700  0.91106600  0.13661900  1
  C  193  1  0.39036700  0.89853300  0.09399200  1
  C  194  1  0.42417900  0.86463900  0.07150700  1
  C  195  1  0.47427200  0.84510300  0.09015300  1
  C  196  1  0.63166000  0.89410600  0.15414600  1
  C  197  1  0.68274800  0.91291700  0.13593000  1
  C  198  1  0.70256100  0.89830000  0.09437200  1
  C  199  1  0.67066800  0.86249000  0.07292100  1
  C  200  1  0.62051900  0.84301400  0.09154300  1
  C  201  1  0.54415100  0.79927100  0.21854100  1
  C  202  1  0.54360900  0.75682600  0.24230200  1
  C  203  1  0.54560600  0.71231700  0.22128500  1
  C  204  1  0.54751400  0.71290000  0.17490800  1
  C  205  1  0.54734000  0.75534000  0.15099500  1
  C  219  1  0.59884300  0.02149100  0.83551800  1
  C  220  1  0.54647400  0.08185100  0.79492900  1
  C  221  1  0.49289400  0.02119200  0.83560600  1
  C  222  1  0.45918500  0.98824800  0.81230900  1
  C  223  1  0.40820600  0.96910400  0.83047000  1
  C  224  1  0.38975200  0.98169800  0.87296600  1
  C  225  1  0.42312900  0.01573700  0.89558600  1
  C  226  1  0.47341800  0.03519500  0.87728200  1
  C  227  1  0.63151300  0.98729500  0.81293600  1
  C  228  1  0.68262500  0.96842100  0.83105400  1
  C  229  1  0.70194800  0.98229600  0.87296200  1
  C  230  1  0.66964100  0.01758700  0.89483500  1
  C  231  1  0.61959500  0.03728500  0.87625600  1
  C  232  1  0.56203600  0.08253300  0.75044100  1
  C  233  1  0.56283900  0.12495400  0.72662300  1
  C  234  1  0.54738300  0.16848600  0.74607200  1
  C  235  1  0.53185100  0.16727600  0.79090000  1
  C  236  1  0.53181800  0.12497500  0.81494700  1
  C  249  1  0.34174800  0.92008900  0.07318500  1
  C  251  1  0.25052100  0.95998100  0.07324300  1
  C  253  1  0.29592900  0.93981700  0.00627800  1
  C  255  1  0.34126000  0.95996800  0.89375400  1
  C  257  1  0.25028900  0.91980600  0.89378700  1
  C  259  1  0.29578800  0.93978900  0.96069600  1
  C  261  1  0.75033800  0.96056100  0.89381300  1
  C  263  1  0.84137700  0.92046500  0.89377700  1
  C  265  1  0.79573500  0.94039600  0.96073200  1
  C  267  1  0.75081300  0.92000200  0.07332400  1
  C  269  1  0.84153000  0.96053800  0.07312600  1
  C  271  1  0.79587200  0.94032000  0.00631700  1
  C  273  1  0.34121600  0.42036700  0.57354700  1
  C  275  1  0.25010700  0.46038100  0.57335100  1
  C  277  1  0.29597200  0.44051100  0.50651100  1
  C  279  1  0.34175700  0.46039200  0.39402300  1
  C  281  1  0.25100500  0.41995200  0.39397400  1
  C  283  1  0.29621500  0.44046900  0.46091900  1
  C  285  1  0.75043500  0.45904100  0.39440200  1
  C  287  1  0.84187300  0.41942700  0.39438200  1
  C  289  1  0.79631400  0.43921300  0.46134000  1
  C  291  1  0.75039000  0.41943400  0.57379200  1
  C  293  1  0.84133200  0.45961400  0.57392200  1
  C  295  1  0.79618400  0.43924800  0.50692900  1
  H  20  1  0.88711100  0.43608600  0.31413900  1
  H  21  1  0.97361800  0.40356000  0.28320600  1
  H  22  1  0.99553600  0.31843800  0.39430100  1
  H  23  1  0.91130200  0.35159300  0.42608700  1
  H  24  1  0.11881300  0.40367300  0.28300500  1
  H  25  1  0.20522900  0.43663500  0.31380500  1
  H  26  1  0.02012700  0.32846300  0.23522900  1
  H  27  1  0.01745200  0.25696000  0.19463800  1
  H  28  1  0.07145300  0.18245000  0.30676500  1
  H  29  1  0.07025400  0.25373400  0.34750000  1
  H  30  1  0.09724900  0.31958100  0.39484000  1
  H  31  1  0.18203200  0.35207500  0.42581600  1
  H  51  1  0.90978200  0.52788800  0.54229600  1
  H  52  1  0.99446300  0.56051900  0.57325600  1
  H  53  1  0.97369100  0.47581600  0.68478800  1
  H  54  1  0.88734600  0.44270200  0.65399100  1
  H  55  1  0.09606600  0.56099100  0.57324900  1
  H  56  1  0.18021100  0.52778900  0.54139800  1
  H  57  1  0.02231000  0.62608500  0.62003800  1
  H  58  1  0.02103600  0.69748800  0.66055500  1
  H  59  1  0.07423700  0.62327100  0.77307100  1
  H  60  1  0.07156900  0.55163400  0.73268800  1
  H  61  1  0.11889600  0.47675500  0.68482400  1
  H  62  1  0.20532000  0.44420100  0.65382100  1
  H  82  1  0.70402100  0.43736300  0.65335900  1
  H  83  1  0.61732800  0.40500600  0.68415700  1
  H  84  1  0.59770500  0.31750600  0.57443200  1
  H  85  1  0.68214800  0.35053100  0.54270700  1
  H  86  1  0.47218700  0.40306400  0.68529600  1
  H  87  1  0.38585600  0.43603000  0.65431900  1
  H  88  1  0.57358700  0.32831800  0.73228100  1
  H  89  1  0.57625500  0.25664300  0.77263000  1
  H  90  1  0.51856000  0.18304800  0.66104900  1
  H  91  1  0.51975400  0.25447000  0.62050500  1
  H  92  1  0.49603300  0.32109000  0.57240500  1
  H  93  1  0.41136100  0.35352100  0.54129300  1
  H  113  1  0.67713900  0.52271700  0.42835000  1
  H  114  1  0.59273300  0.55541900  0.39718000  1
  H  115  1  0.62203700  0.47996300  0.28119600  1
  H  116  1  0.70815700  0.44661000  0.31225900  1
  H  117  1  0.49103300  0.56565500  0.39153500  1
  H  118  1  0.40664300  0.53220000  0.42334200  1
  H  119  1  0.58949800  0.62330900  0.34248300  1
  H  120  1  0.59158800  0.69410700  0.30147400  1
  H  121  1  0.49979400  0.62697100  0.19989500  1
  H  122  1  0.50240900  0.55525400  0.23992700  1
  H  123  1  0.47764200  0.47229800  0.28549800  1
  H  124  1  0.39101300  0.43963900  0.31616400  1
  H  144  1  0.91207100  0.85417600  0.92641800  1
  H  145  1  0.99673000  0.82170200  0.89535000  1
  H  146  1  0.97205700  0.90260100  0.78187300  1
  H  147  1  0.88573600  0.93562200  0.81280400  1
  H  148  1  0.09844500  0.81705500  0.89272400  1
  H  149  1  0.18275900  0.85027400  0.92452300  1
  H  150  1  0.01854000  0.75462400  0.84669200  1
  H  151  1  0.01735700  0.68322100  0.80614500  1
  H  152  1  0.07786600  0.75643400  0.69518000  1
  H  153  1  0.07517600  0.82811500  0.73548500  1
  H  154  1  0.11697700  0.90562300  0.78360000  1
  H  155  1  0.20353200  0.93815800  0.81444200  1
  H  175  1  0.88832200  0.94229400  0.15246100  1
  H  176  1  0.97484600  0.97487000  0.18329700  1
  H  177  1  0.99342000  0.06331700  0.07410000  1
  H  178  1  0.90911100  0.03003900  0.04230300  1
  H  179  1  0.11980300  0.97793500  0.18510200  1
  H  180  1  0.20617400  0.94492100  0.15422700  1
  H  181  1  0.01696800  0.05202600  0.23154400  1
  H  182  1  0.01444900  0.12355000  0.27210400  1
  H  183  1  0.07444500  0.19720900  0.16123600  1
  H  184  1  0.07314900  0.12594600  0.12045400  1
  H  185  1  0.09521100  0.05880800  0.07160300  1
  H  186  1  0.17991400  0.02632100  0.04058000  1
  H  206  1  0.70382600  0.93905200  0.15242800  1
  H  207  1  0.61734800  0.90663600  0.18349900  1
  H  208  1  0.59892500  0.81751500  0.07476100  1
  H  209  1  0.68353200  0.85009800  0.04310700  1
  H  210  1  0.47215200  0.90324700  0.18518300  1
  H  211  1  0.38577000  0.93566900  0.15402300  1
  H  212  1  0.54270000  0.83051800  0.23505100  1
  H  213  1  0.54060400  0.75909800  0.27550300  1
  H  214  1  0.55026900  0.68219500  0.15769600  1
  H  215  1  0.54872400  0.75404600  0.11769800  1
  H  216  1  0.49716600  0.82094300  0.07266100  1
  H  217  1  0.41277300  0.85361700  0.04090700  1
  H  237  1  0.70412000  0.94280600  0.81416400  1
  H  238  1  0.61751800  0.97527700  0.78331700  1
  H  239  1  0.59786700  0.06269800  0.89309800  1
  H  240  1  0.68222400  0.02956000  0.92485900  1
  H  241  1  0.47240900  0.97725200  0.78214900  1
  H  242  1  0.38603800  0.94430500  0.81304400  1
  H  243  1  0.57319800  0.05190700  0.73510200  1
  H  244  1  0.57575000  0.12358200  0.69474300  1
  H  245  1  0.51915000  0.19727900  0.80659200  1
  H  246  1  0.52044100  0.12584000  0.84712300  1
  H  247  1  0.49616700  0.05917400  0.89508300  1
  H  248  1  0.41143700  0.02674300  0.92613200  1
  N  1  1  0.04637900  0.34189200  0.31785400  1
  N  32  1  0.04572800  0.53796200  0.65004200  1
  N  63  1  0.54562600  0.34226500  0.65003600  1
  N  94  1  0.54621000  0.53837700  0.31815500  1
  N  125  1  0.04586700  0.84224000  0.81746400  1
  N  156  1  0.04596800  0.03823800  0.14942400  1
  N  187  1  0.54630800  0.84323900  0.15046300  1
  N  218  1  0.54581800  0.03800600  0.81745500  1
  N  250  1  0.29619300  0.94010000  0.09492400  1
  N  252  1  0.25145500  0.95861500  0.02885000  1
  N  254  1  0.34058200  0.92118300  0.02878800  1
  N  256  1  0.29574300  0.93993100  0.87204200  1
  N  258  1  0.25127700  0.92091600  0.93818000  1
  N  260  1  0.34023600  0.95868700  0.93814800  1
  N  262  1  0.79585200  0.94052100  0.87207500  1
  N  264  1  0.84025000  0.92162800  0.93817400  1
  N  266  1  0.75125800  0.95931600  0.93821000  1
  N  268  1  0.79624900  0.94026900  0.09493900  1
  N  270  1  0.84035300  0.95940900  0.02873700  1
  N  272  1  0.75159000  0.92117400  0.02892500  1
  N  274  1  0.29557100  0.44033900  0.59516400  1
  N  276  1  0.25131900  0.45925200  0.52895400  1
  N  278  1  0.34036500  0.42166500  0.52915000  1
  N  280  1  0.29647300  0.44006100  0.37226500  1
  N  282  1  0.25191100  0.42133400  0.43836800  1
  N  284  1  0.34070200  0.45945600  0.43842400  1
  N  286  1  0.79615800  0.43926900  0.37268000  1
  N  288  1  0.84093400  0.42062000  0.43877900  1
  N  290  1  0.75165300  0.45774300  0.43879600  1
  N  292  1  0.79575400  0.43961100  0.59558900  1
  N  294  1  0.84052600  0.45825300  0.52952200  1
  N  296  1  0.75157900  0.42045500  0.52940100  1
