# generated using pymatgen
data_H28C41N8
_symmetry_space_group_name_H-M   'P 1'
_cell_length_a   41.70443494
_cell_length_b   41.70535686
_cell_length_c   41.70351288
_cell_angle_alpha   70.53057403
_cell_angle_beta   70.53399373
_cell_angle_gamma   109.47822978
_symmetry_Int_Tables_number   1
_chemical_formula_structural   H28C41N8
_chemical_formula_sum   'H168 C246 N48'
_cell_volume   55837.35357821
_cell_formula_units_Z   6
loop_
 _symmetry_equiv_pos_site_id
 _symmetry_equiv_pos_as_xyz
  1  'x, y, z'
loop_
 _atom_site_type_symbol
 _atom_site_label
 _atom_site_symmetry_multiplicity
 _atom_site_fract_x
 _atom_site_fract_y
 _atom_site_fract_z
 _atom_site_occupancy
  C  1  1  0.81101300  0.24134350  0.48903750  1
  C  2  1  0.78363950  0.22389200  0.47926650  1
  C  3  1  0.78415900  0.25244000  0.45020500  1
  C  4  1  0.81138200  0.28957850  0.44043950  1
  C  5  1  0.81575600  0.32312800  0.41127400  1
  C  6  1  0.79302250  0.31883700  0.39226650  1
  C  7  1  0.76616700  0.28012300  0.40335200  1
  C  8  1  0.76157450  0.24701100  0.43205350  1
  C  9  1  0.76006000  0.18315850  0.49741050  1
  C  10  1  0.76446150  0.15904250  0.52611700  1
  C  11  1  0.79208800  0.17480650  0.53721050  1
  C  12  1  0.81538850  0.21654350  0.51820800  1
  C  13  1  0.87444500  0.30480600  0.44099100  1
  C  14  1  0.89254900  0.33241200  0.45028300  1
  C  15  1  0.86369300  0.33232300  0.47922600  1
  C  16  1  0.82679750  0.30494300  0.48850350  1
  C  17  1  0.86738900  0.35390150  0.49874950  1
  C  18  1  0.83320750  0.34729100  0.52854450  1
  C  19  1  0.79522250  0.31997350  0.53861200  1
  C  20  1  0.79253100  0.29886250  0.51801250  1
  C  21  1  0.89787500  0.30005750  0.41147350  1
  C  22  1  0.93958500  0.32335200  0.39086900  1
  C  23  1  0.95683250  0.35126850  0.40093900  1
  C  24  1  0.93365000  0.35563500  0.43075500  1
  C  37  1  0.83088550  0.28514450  0.46474200  1
  C  38  1  0.76132550  0.31125800  0.57002450  1
  C  39  1  0.96228400  0.32090600  0.35942600  1
  C  40  1  0.79695150  0.14909250  0.56435300  1
  C  41  1  0.79445350  0.35084800  0.36513050  1
  C  46  1  0.35070000  0.82925550  0.44082250  1
  C  47  1  0.37791650  0.84670750  0.45074800  1
  C  48  1  0.37843050  0.81816100  0.47878050  1
  C  49  1  0.35106250  0.78102250  0.48869200  1
  C  50  1  0.34667850  0.74747250  0.51786800  1
  C  51  1  0.36997400  0.75176450  0.53631250  1
  C  52  1  0.39759650  0.79047800  0.52446150  1
  C  53  1  0.40200200  0.82359100  0.49594400  1
  C  54  1  0.40049750  0.88744050  0.43360200  1
  C  55  1  0.39590350  0.91155450  0.40508400  1
  C  56  1  0.36906050  0.89578950  0.39321200  1
  C  57  1  0.34632700  0.85404950  0.41164750  1
  C  58  1  0.33527750  0.76577850  0.44086800  1
  C  59  1  0.29837800  0.73817800  0.45036700  1
  C  60  1  0.26952700  0.73827600  0.47912900  1
  C  61  1  0.28763700  0.76565150  0.48864550  1
  C  62  1  0.22842350  0.71668900  0.49702950  1
  C  63  1  0.20524850  0.72331450  0.52459300  1
  C  64  1  0.22250400  0.75061800  0.53526900  1
  C  65  1  0.26421550  0.77172150  0.51684600  1
  C  66  1  0.36954200  0.77053450  0.41267750  1
  C  67  1  0.36684800  0.74724300  0.39425800  1
  C  68  1  0.32885900  0.71932250  0.40493750  1
  C  69  1  0.29468050  0.71495200  0.43249450  1
  C  82  1  0.33119550  0.78545150  0.46475500  1
  C  83  1  0.19982600  0.75936800  0.56042300  1
  C  84  1  0.40073450  0.74968150  0.36911800  1
  C  85  1  0.36761450  0.92149950  0.36264800  1
  C  86  1  0.36511650  0.71974300  0.56687250  1
  C  91  1  0.60496050  0.30496250  0.17082300  1
  C  92  1  0.59504100  0.33218150  0.15337450  1
  C  93  1  0.56700550  0.33268750  0.18192200  1
  C  94  1  0.55708350  0.30531050  0.21906000  1
  C  95  1  0.52790450  0.30092550  0.25260800  1
  C  96  1  0.50945700  0.32421400  0.24831600  1
  C  97  1  0.52133250  0.35185650  0.20960300  1
  C  98  1  0.54985000  0.35626350  0.17649250  1
  C  99  1  0.61220550  0.35478200  0.11264150  1
  C  100  1  0.64072550  0.35019500  0.08852450  1
  C  101  1  0.65258550  0.32334100  0.10428550  1
  C  102  1  0.63413750  0.30059650  0.14602200  1
  C  103  1  0.60491350  0.28954500  0.23429650  1
  C  104  1  0.59542050  0.25265550  0.26189800  1
  C  105  1  0.56664150  0.22379350  0.26182000  1
  C  106  1  0.55714450  0.24189150  0.23442000  1
  C  107  1  0.54876400  0.18269400  0.28338500  1
  C  108  1  0.52119100  0.15950450  0.27677250  1
  C  109  1  0.51049500  0.17674600  0.24948300  1
  C  110  1  0.52893300  0.21845650  0.22836050  1
  C  111  1  0.63311750  0.32382050  0.22951600  1
  C  112  1  0.65154050  0.32114800  0.25280550  1
  C  113  1  0.64086150  0.28317400  0.28074250  1
  C  114  1  0.61327900  0.24898000  0.28514300  1
  C  127  1  0.58102350  0.28545050  0.21462600  1
  C  128  1  0.48533750  0.15405450  0.24073800  1
  C  129  1  0.67671000  0.35506450  0.25030550  1
  C  130  1  0.68315550  0.32190400  0.07857250  1
  C  131  1  0.47888750  0.31935200  0.28032450  1
  C  136  1  0.55673300  0.76526800  0.75873000  1
  C  137  1  0.56649800  0.73789600  0.77618500  1
  C  138  1  0.59555900  0.73841100  0.74764100  1
  C  139  1  0.60532750  0.76562950  0.71050100  1
  C  140  1  0.63449350  0.76999750  0.67695500  1
  C  141  1  0.65349050  0.74725850  0.68125200  1
  C  142  1  0.64241650  0.72042200  0.71996650  1
  C  143  1  0.61370450  0.71582600  0.75307450  1
  C  144  1  0.54834500  0.71431450  0.81691650  1
  C  145  1  0.51964350  0.71872150  0.84103000  1
  C  146  1  0.50856350  0.74635300  0.82526250  1
  C  147  1  0.52756000  0.76964150  0.78352450  1
  C  148  1  0.60479100  0.82869300  0.69525700  1
  C  149  1  0.59550100  0.84679350  0.66764950  1
  C  150  1  0.56655400  0.81793300  0.66773800  1
  C  151  1  0.55726800  0.78104050  0.69512750  1
  C  152  1  0.54700450  0.82161900  0.64618550  1
  C  153  1  0.51720750  0.78743450  0.65279300  1
  C  154  1  0.50714700  0.74945550  0.68010450  1
  C  155  1  0.52775750  0.74677000  0.70120650  1
  C  156  1  0.63429200  0.85213050  0.70002350  1
  C  157  1  0.65489750  0.89384000  0.67672750  1
  C  158  1  0.64481600  0.91108400  0.64882400  1
  C  159  1  0.61502350  0.88789200  0.64443350  1
  C  172  1  0.58103000  0.78513200  0.71492900  1
  C  173  1  0.47573200  0.71554950  0.68882850  1
  C  174  1  0.68632600  0.91654250  0.67919550  1
  C  175  1  0.48139150  0.75119800  0.85096650  1
  C  176  1  0.68063900  0.74869250  0.64924450  1
  C  181  1  0.33532300  0.55956800  0.23442200  1
  C  182  1  0.29818450  0.54979800  0.26164350  1
  C  183  1  0.26963500  0.52073900  0.26215500  1
  C  184  1  0.28708450  0.51097700  0.23478050  1
  C  185  1  0.26228650  0.48181050  0.23039500  1
  C  186  1  0.22054950  0.46280300  0.25369150  1
  C  187  1  0.20478500  0.47387400  0.28133300  1
  C  188  1  0.22890000  0.50258900  0.28573200  1
  C  189  1  0.29275900  0.56793900  0.28423700  1
  C  190  1  0.32587350  0.59665850  0.27963400  1
  C  191  1  0.36458650  0.60774000  0.25278750  1
  C  192  1  0.36887400  0.58873800  0.23005100  1
  C  193  1  0.35067550  0.51150300  0.21900750  1
  C  194  1  0.37805000  0.52077450  0.18211650  1
  C  195  1  0.37815400  0.54973450  0.15325850  1
  C  196  1  0.35055800  0.55903000  0.17135700  1
  C  197  1  0.40138650  0.56927600  0.11215950  1
  C  198  1  0.39700000  0.59906850  0.08897050  1
  C  199  1  0.36909100  0.60914050  0.10621750  1
  C  200  1  0.34579650  0.58853650  0.14792500  1
  C  201  1  0.34460350  0.48200450  0.25327800  1
  C  202  1  0.36570950  0.46140250  0.25059700  1
  C  203  1  0.39301350  0.47145700  0.21261850  1
  C  204  1  0.39961950  0.50124600  0.17843250  1
  C  217  1  0.33088550  0.53527100  0.21491750  1
  C  218  1  0.36662800  0.64057250  0.08352050  1
  C  219  1  0.35697250  0.42998050  0.28449900  1
  C  220  1  0.39660400  0.63489800  0.25133700  1
  C  221  1  0.19484100  0.43564700  0.24882800  1
  C  226  1  0.82678700  0.51136750  0.69472950  1
  C  227  1  0.86392800  0.52129600  0.66735600  1
  C  228  1  0.89247250  0.54933100  0.66787150  1
  C  229  1  0.87501850  0.55924750  0.69509200  1
  C  230  1  0.89981450  0.58841900  0.69947250  1
  C  231  1  0.94155550  0.60686450  0.67673900  1
  C  232  1  0.95732000  0.59499850  0.64989350  1
  C  233  1  0.93320750  0.56648800  0.64528950  1
  C  234  1  0.86936250  0.50414050  0.64377800  1
  C  235  1  0.83625200  0.47560750  0.64818950  1
  C  236  1  0.79753700  0.46373500  0.67581900  1
  C  237  1  0.79324050  0.48218450  0.69910800  1
  C  238  1  0.81141550  0.51141300  0.75815850  1
  C  239  1  0.78402100  0.52091250  0.77625750  1
  C  240  1  0.78392350  0.54966900  0.74740150  1
  C  241  1  0.81152850  0.55917700  0.71050550  1
  C  242  1  0.76070550  0.56754800  0.75110050  1
  C  243  1  0.76508100  0.59511550  0.71692450  1
  C  244  1  0.79299550  0.60579100  0.67893950  1
  C  245  1  0.81629250  0.58738000  0.67624150  1
  C  246  1  0.81748150  0.48321700  0.78159950  1
  C  247  1  0.79636050  0.46479150  0.82331200  1
  C  248  1  0.76904650  0.47546250  0.84054900  1
  C  249  1  0.76243900  0.50303100  0.81735500  1
  C  262  1  0.83121400  0.53530300  0.71459700  1
  C  263  1  0.79546850  0.63097550  0.64504800  1
  C  264  1  0.80509400  0.43963950  0.84601950  1
  C  265  1  0.76552850  0.43316400  0.68067150  1
  C  266  1  0.96726350  0.63742450  0.67820100  1
  C  541  1  0.72580050  0.33168750  0.70713200  1
  C  542  1  0.74285300  0.35521200  0.66428300  1
  C  547  1  0.75993900  0.35345900  0.60396200  1
  C  548  1  0.77791700  0.39479900  0.58250800  1
  C  549  1  0.79566700  0.41751800  0.53947500  1
  C  554  1  0.76112450  0.39666600  0.64271550  1
  C  557  1  0.04226700  0.73889650  0.61640750  1
  C  558  1  0.06160000  0.71538050  0.62286850  1
  C  563  1  0.12369050  0.71716700  0.60400750  1
  C  564  1  0.10381800  0.67582650  0.62736950  1
  C  565  1  0.12414750  0.65312450  0.63233300  1
  C  570  1  0.04172700  0.67392750  0.64605650  1
  C  573  1  0.43630100  0.64814600  0.31312100  1
  C  574  1  0.41923250  0.67392800  0.30666250  1
  C  579  1  0.40215250  0.71716700  0.32549550  1
  C  580  1  0.38417650  0.72064100  0.30213050  1
  C  581  1  0.36642000  0.74591650  0.29716650  1
  C  586  1  0.40097900  0.67723700  0.28346200  1
  C  589  1  0.11983350  0.42242200  0.22234850  1
  C  590  1  0.10050050  0.39663600  0.26520050  1
  C  595  1  0.03841700  0.35339950  0.32551250  1
  C  596  1  0.05829650  0.34991500  0.34697350  1
  C  597  1  0.03797300  0.32463600  0.39000800  1
  C  602  1  0.12037950  0.39331850  0.28677600  1
  C  605  1  0.42936750  0.99650150  0.26117900  1
  C  606  1  0.42291600  0.01583500  0.28469800  1
  C  611  1  0.44175600  0.07791850  0.28292750  1
  C  612  1  0.41839950  0.05803900  0.32426850  1
  C  613  1  0.41343400  0.07836050  0.34697950  1
  C  618  1  0.39972700  0.99595450  0.32615050  1
  C  621  1  0.33863850  0.68005600  0.66834150  1
  C  622  1  0.38149200  0.69712700  0.64482900  1
  C  627  1  0.44179400  0.71418950  0.64662450  1
  C  628  1  0.46326600  0.73217350  0.60528550  1
  C  629  1  0.50629850  0.74991050  0.58258500  1
  C  634  1  0.40307550  0.71539400  0.60337750  1
  C  637  1  0.82342350  0.07409850  0.57760400  1
  C  638  1  0.78057050  0.05476250  0.60339300  1
  C  643  1  0.72025850  0.99268050  0.64664600  1
  C  644  1  0.69879700  0.01255900  0.65011800  1
  C  645  1  0.65576300  0.99223800  0.67539600  1
  C  650  1  0.75900000  0.07464050  0.60670050  1
  C  653  1  0.73268550  0.39055050  0.35192500  1
  C  654  1  0.73911500  0.37347450  0.32614550  1
  C  659  1  0.72024800  0.35641400  0.28290800  1
  C  660  1  0.74360450  0.33843300  0.27941050  1
  C  661  1  0.74857500  0.32071200  0.25410100  1
  C  666  1  0.76229900  0.35521100  0.32282000  1
  C  669  1  0.46817150  0.77766650  0.92597400  1
  C  670  1  0.44238850  0.73481200  0.94530650  1
  C  675  1  0.39914600  0.67450000  0.00738800  1
  C  676  1  0.39566100  0.65303850  0.98750850  1
  C  677  1  0.37037500  0.61000350  0.00783050  1
  C  682  1  0.43906850  0.71323950  0.92542700  1
  C  685  1  0.69388950  0.68693600  0.60952750  1
  C  686  1  0.71967750  0.69339350  0.62659500  1
  C  691  1  0.76293350  0.67457400  0.64365650  1
  C  692  1  0.76640300  0.69792900  0.66164500  1
  C  693  1  0.79168050  0.70289150  0.67940300  1
  C  698  1  0.72298400  0.71658450  0.64485650  1
  C  701  1  0.78463000  0.38366950  0.00356950  1
  C  702  1  0.76110850  0.37720150  0.98423900  1
  C  707  1  0.76287500  0.39603450  0.92215650  1
  C  708  1  0.72153300  0.37268000  0.94203700  1
  C  709  1  0.69881350  0.36772150  0.92171800  1
  C  714  1  0.71965450  0.35401750  0.00411800  1
  C  717  1  0.37740300  0.29286850  0.32003650  1
  C  718  1  0.40092350  0.33572200  0.30297750  1
  C  723  1  0.39915850  0.39603450  0.28589900  1
  C  724  1  0.44050000  0.41749800  0.26792300  1
  C  725  1  0.46321400  0.46053050  0.25017950  1
  C  730  1  0.44237650  0.35729600  0.28471550  1
  H  25  1  0.98655050  0.36971650  0.38581900  1
  H  26  1  0.94665400  0.37635350  0.43707450  1
  H  27  1  0.89442800  0.37327300  0.49238400  1
  H  28  1  0.83653400  0.36192850  0.54362950  1
  H  29  1  0.76575300  0.27825700  0.52497200  1
  H  30  1  0.88422800  0.28027100  0.40448500  1
  H  31  1  0.83519150  0.35044700  0.40431550  1
  H  32  1  0.74863900  0.27509900  0.39124900  1
  H  33  1  0.74170050  0.21964550  0.43960900  1
  H  34  1  0.83574650  0.22901600  0.52517150  1
  H  35  1  0.74023200  0.17084550  0.48986950  1
  H  36  1  0.74731700  0.12941350  0.53823450  1
  H  42  1  0.94917850  0.30776550  0.34783300  1
  H  43  1  0.73658100  0.28658200  0.58159500  1
  H  44  1  0.82040600  0.15879050  0.56730350  1
  H  45  1  0.80696500  0.37721200  0.36230200  1
  H  70  1  0.32552800  0.70088750  0.39365150  1
  H  71  1  0.26763950  0.69426150  0.44018100  1
  H  72  1  0.21541150  0.69735200  0.48933150  1
  H  73  1  0.17552700  0.70870800  0.53588200  1
  H  74  1  0.27786900  0.79234350  0.52299750  1
  H  75  1  0.39632000  0.79032700  0.40653000  1
  H  76  1  0.32633150  0.72015350  0.52574000  1
  H  77  1  0.41473250  0.79550100  0.53695750  1
  H  78  1  0.42182200  0.85095500  0.48844300  1
  H  79  1  0.32689150  0.84157850  0.40376400  1
  H  80  1  0.42035300  0.89975650  0.44111450  1
  H  81  1  0.41341800  0.94118550  0.39259850  1
  H  87  1  0.42547100  0.76284400  0.36906800  1
  H  88  1  0.21295900  0.78404350  0.56048150  1
  H  89  1  0.35501850  0.91181450  0.34885200  1
  H  90  1  0.34150400  0.69341800  0.58082200  1
  H  115  1  0.65214800  0.27986300  0.29917700  1
  H  116  1  0.60560150  0.22194600  0.30583250  1
  H  117  1  0.55643950  0.16968800  0.30274950  1
  H  118  1  0.50988250  0.12978250  0.29140100  1
  H  119  1  0.52276950  0.23210100  0.20774950  1
  H  120  1  0.63926050  0.35058750  0.20971600  1
  H  121  1  0.52001950  0.28056600  0.27992550  1
  H  122  1  0.50884650  0.36899950  0.20458000  1
  H  123  1  0.55737150  0.37610050  0.14913000  1
  H  124  1  0.64202250  0.28116350  0.15849200  1
  H  125  1  0.60468350  0.37462500  0.10032950  1
  H  126  1  0.65320750  0.36770500  0.05889650  1
  H  132  1  0.67678550  0.37979850  0.23707500  1
  H  133  1  0.48526000  0.16718650  0.21607550  1
  H  134  1  0.69696250  0.30933250  0.08826500  1
  H  135  1  0.46514350  0.29591350  0.30673300  1
  H  160  1  0.65993950  0.94080250  0.63037500  1
  H  161  1  0.60867750  0.90089350  0.62374000  1
  H  162  1  0.55336350  0.84865750  0.62682100  1
  H  163  1  0.50209950  0.79075200  0.63818150  1
  H  164  1  0.52078950  0.71999650  0.72182300  1
  H  165  1  0.64127650  0.83848900  0.71981550  1
  H  166  1  0.64145450  0.78942800  0.64963650  1
  H  167  1  0.65451050  0.70288950  0.72499200  1
  H  168  1  0.60615550  0.69596600  0.78043950  1
  H  169  1  0.52059700  0.78999500  0.77105100  1
  H  170  1  0.55588700  0.69449450  0.82923250  1
  H  171  1  0.50752250  0.70157850  0.87065800  1
  H  177  1  0.69789100  0.90343350  0.69237250  1
  H  178  1  0.46421150  0.69080600  0.71348250  1
  H  179  1  0.47859750  0.77475450  0.84129600  1
  H  180  1  0.68352500  0.76126950  0.62286050  1
  H  205  1  0.40764450  0.45636700  0.20930150  1
  H  206  1  0.41900350  0.50761950  0.15139500  1
  H  207  1  0.42205800  0.56290950  0.09915550  1
  H  208  1  0.41543250  0.61417900  0.05925250  1
  H  209  1  0.32601550  0.59552750  0.16157100  1
  H  210  1  0.32399500  0.47504550  0.28005150  1
  H  211  1  0.27475850  0.47484750  0.21004000  1
  H  212  1  0.17515500  0.46175700  0.29847000  1
  H  213  1  0.21658900  0.51012000  0.30556500  1
  H  214  1  0.39619050  0.59570000  0.21061750  1
  H  215  1  0.26539500  0.56040750  0.30408350  1
  H  216  1  0.32085250  0.60876850  0.29715200  1
  H  222  1  0.33231100  0.41845250  0.30924150  1
  H  223  1  0.35345650  0.65213750  0.09663400  1
  H  224  1  0.42296700  0.63773150  0.23882450  1
  H  225  1  0.20452200  0.43281150  0.22529850  1
  H  250  1  0.75444650  0.46419350  0.87026500  1
  H  251  1  0.74310000  0.51072950  0.83035350  1
  H  252  1  0.74003600  0.55988100  0.77814100  1
  H  253  1  0.74667100  0.60642550  0.72025250  1
  H  254  1  0.83610150  0.59355300  0.64946350  1
  H  255  1  0.83810800  0.47706700  0.76796200  1
  H  256  1  0.88734200  0.59629900  0.71890900  1
  H  257  1  0.98695000  0.60749950  0.63237250  1
  H  258  1  0.94552150  0.55898500  0.62542950  1
  H  259  1  0.76592100  0.47429350  0.71946550  1
  H  260  1  0.89672900  0.51166050  0.62394850  1
  H  261  1  0.84127850  0.46312650  0.63104200  1
  H  267  1  0.82977800  0.43958650  0.83291650  1
  H  268  1  0.80865150  0.63105700  0.62029950  1
  H  269  1  0.73912100  0.41941400  0.70411700  1
  H  270  1  0.95759050  0.65132900  0.69063450  1
  H  543  1  0.69513650  0.30979250  0.72024700  1
  H  544  1  0.72689350  0.34949900  0.72123650  1
  H  545  1  0.74185450  0.31663300  0.71307550  1
  H  550  1  0.82044450  0.41427000  0.52487750  1
  H  551  1  0.80622900  0.44872650  0.52925650  1
  H  552  1  0.77383750  0.40701500  0.53109350  1
  H  559  1  0.05104100  0.76078600  0.62518500  1
  H  560  1  0.01035250  0.72107900  0.63312650  1
  H  561  1  0.05137550  0.75395500  0.58530150  1
  H  566  1  0.14198800  0.65636800  0.60430800  1
  H  567  1  0.10316300  0.62191550  0.65298750  1
  H  568  1  0.14303600  0.66364200  0.64364900  1
  H  575  1  0.46696250  0.66570300  0.30435050  1
  H  576  1  0.43521200  0.63295300  0.29639900  1
  H  577  1  0.42025150  0.62614550  0.34422900  1
  H  582  1  0.34163700  0.73572950  0.32519350  1
  H  583  1  0.35586200  0.74557350  0.27651550  1
  H  584  1  0.38824350  0.77612550  0.28584600  1
  H  591  1  0.11105300  0.40487000  0.20923900  1
  H  592  1  0.15175050  0.43761150  0.20825100  1
  H  593  1  0.11073450  0.44442500  0.21639250  1
  H  598  1  0.02013300  0.33482550  0.40459750  1
  H  599  1  0.05896000  0.32497550  0.40023350  1
  H  600  1  0.01908450  0.29442850  0.39839000  1
  H  607  1  0.42058650  0.00527450  0.23929300  1
  H  608  1  0.41264600  0.96458600  0.27899400  1
  H  609  1  0.46047600  0.00561350  0.24611450  1
  H  614  1  0.44146050  0.09621050  0.34373400  1
  H  615  1  0.39278550  0.05737350  0.37818700  1
  H  616  1  0.40210900  0.09724050  0.33647450  1
  H  623  1  0.32552500  0.64938450  0.69021650  1
  H  624  1  0.32454500  0.68116200  0.65051900  1
  H  625  1  0.33267600  0.69608500  0.68341900  1
  H  630  1  0.52090250  0.77468800  0.58583350  1
  H  631  1  0.51652650  0.76046950  0.55137600  1
  H  632  1  0.51466550  0.72807450  0.59309800  1
  H  639  1  0.83653900  0.06532950  0.59515550  1
  H  640  1  0.83752300  0.10601500  0.56240800  1
  H  641  1  0.82937600  0.06498700  0.55560700  1
  H  646  1  0.64116550  0.97439000  0.66521550  1
  H  647  1  0.64554400  0.01322650  0.67505250  1
  H  648  1  0.64738300  0.97335750  0.70560450  1
  H  655  1  0.74147800  0.42121950  0.33436750  1
  H  656  1  0.74940650  0.38944550  0.36711800  1
  H  657  1  0.70157700  0.37451700  0.37392400  1
  H  662  1  0.72055200  0.29593300  0.26427000  1
  H  663  1  0.76923050  0.31015850  0.25442300  1
  H  664  1  0.75989500  0.34255500  0.22390100  1
  H  671  1  0.45061650  0.79077400  0.93474950  1
  H  672  1  0.48336450  0.79176500  0.89406050  1
  H  673  1  0.49017300  0.78362700  0.93508200  1
  H  678  1  0.38055850  0.59540750  0.02567400  1
  H  679  1  0.37070900  0.59978000  0.98684400  1
  H  680  1  0.34016850  0.60162400  0.02671450  1
  H  687  1  0.71144150  0.69571600  0.57886150  1
  H  688  1  0.67869300  0.70365350  0.61062250  1
  H  689  1  0.67189100  0.65582600  0.62557000  1
  H  694  1  0.78150000  0.67486350  0.70417750  1
  H  695  1  0.79133500  0.72353450  0.68996950  1
  H  696  1  0.82189100  0.71422350  0.65757850  1
  H  703  1  0.80651750  0.37489250  0.99480200  1
  H  704  1  0.76681500  0.36695450  0.03548350  1
  H  705  1  0.79969200  0.41477950  0.99445550  1
  H  710  1  0.70206850  0.39575150  0.90387200  1
  H  711  1  0.66760350  0.34707800  0.94270650  1
  H  712  1  0.70930900  0.35639450  0.90283550  1
  H  719  1  0.35551150  0.27975550  0.35069900  1
  H  720  1  0.39521850  0.27877100  0.31894650  1
  H  721  1  0.36234550  0.28691750  0.30398500  1
  H  726  1  0.45997050  0.47513250  0.22539900  1
  H  727  1  0.49442200  0.47075300  0.23962600  1
  H  728  1  0.45270750  0.46890750  0.27200900  1
  N  546  1  0.74326750  0.33575600  0.64369550  1
  N  553  1  0.77823250  0.41421700  0.60301250  1
  N  555  1  0.75971650  0.33141100  0.58741250  1
  N  556  1  0.77115100  0.42041950  0.65631850  1
  N  562  1  0.10164100  0.73484850  0.60299350  1
  N  569  1  0.06389650  0.65639450  0.64648800  1
  N  571  1  0.16228600  0.73925650  0.58220150  1
  N  572  1  0.00435850  0.65014900  0.65984850  1
  N  578  1  0.41881600  0.69409800  0.32653500  1
  N  585  1  0.38387150  0.69983250  0.28301900  1
  N  587  1  0.40234600  0.73391050  0.34735050  1
  N  588  1  0.39098550  0.65364050  0.26969100  1
  N  594  1  0.06045750  0.37647150  0.28577800  1
  N  601  1  0.09821900  0.37072000  0.32647700  1
  N  603  1  0.99982150  0.33666400  0.34205550  1
  N  604  1  0.15774300  0.41690900  0.27318400  1
  N  610  1  0.44277950  0.05587600  0.26523650  1
  N  617  1  0.39929150  0.01811700  0.34369250  1
  N  619  1  0.46356450  0.11651500  0.26085350  1
  N  620  1  0.38598150  0.95859750  0.34990900  1
  N  626  1  0.40206050  0.69752100  0.66430250  1
  N  633  1  0.44277800  0.73249200  0.58585000  1
  N  635  1  0.45829600  0.71388300  0.66872300  1
  N  636  1  0.38949350  0.72537400  0.57959150  1
  N  642  1  0.75999050  0.01472000  0.62357650  1
  N  649  1  0.71929550  0.05248000  0.62929850  1
  N  651  1  0.70372100  0.95408250  0.66342350  1
  N  652  1  0.77259650  0.11199400  0.58308150  1
  N  658  1  0.71924750  0.37308500  0.30596950  1
  N  665  1  0.76272450  0.33811350  0.30021500  1
  N  667  1  0.69848550  0.35677700  0.26607250  1
  N  668  1  0.77608750  0.34522250  0.34639600  1
  N  674  1  0.42221800  0.71423450  0.98534550  1
  N  681  1  0.41646750  0.67353600  0.94758750  1
  N  683  1  0.38238800  0.65796150  0.04598350  1
  N  684  1  0.46265250  0.72683300  0.88806150  1
  N  690  1  0.73985800  0.67353450  0.62699450  1
  N  697  1  0.74558550  0.71702950  0.66196100  1
  N  699  1  0.77969200  0.65273600  0.64345000  1
  N  700  1  0.69937600  0.73033700  0.65486600  1
  N  706  1  0.78056950  0.39706650  0.94419800  1
  N  713  1  0.70211100  0.35357800  0.98195700  1
  N  715  1  0.78493100  0.41787150  0.88355950  1
  N  716  1  0.69589100  0.34026550  0.04147550  1
  N  722  1  0.38146450  0.35630100  0.30256850  1
  N  729  1  0.45992250  0.39700100  0.26760850  1
  N  731  1  0.37708650  0.41255800  0.28616050  1
  N  732  1  0.46612900  0.34369200  0.27470400  1
