# generated using pymatgen
data_LaH8C15NO7
_symmetry_space_group_name_H-M   'P 1'
_cell_length_a   9.74193000
_cell_length_b   9.97454000
_cell_length_c   11.20598000
_cell_angle_alpha   88.87832000
_cell_angle_beta   74.14115000
_cell_angle_gamma   68.59972000
_symmetry_Int_Tables_number   1
_chemical_formula_structural   LaH8C15NO7
_chemical_formula_sum   'La2 H16 C30 N2 O14'
_cell_volume   971.32418278
_cell_formula_units_Z   2
loop_
 _symmetry_equiv_pos_site_id
 _symmetry_equiv_pos_as_xyz
  1  'x, y, z'
loop_
 _atom_site_type_symbol
 _atom_site_label
 _atom_site_symmetry_multiplicity
 _atom_site_fract_x
 _atom_site_fract_y
 _atom_site_fract_z
 _atom_site_occupancy
  La  La1  1  0.79678000  0.97410000  0.03084000  1.0
  La  La2  1  0.20322000  0.02591000  0.96916000  1.0
  H  H1  1  0.17162000  0.46543000  0.01347000  1.0
  H  H2  1  0.57449000  0.33033000  0.14665000  1.0
  H  H3  1  0.26215000  0.77232000  0.21641000  1.0
  H  H4  1  0.29316000  0.54601000  0.43429000  1.0
  H  H5  1  0.19574000  0.67099000  0.65046000  1.0
  H  H6  1  0.51989000  0.88244000  0.54417000  1.0
  H  H7  1  0.67078000  0.71309000  0.22404000  1.0
  H  H8  1  0.66697000  0.84562000  0.31810000  1.0
  H  H9  1  0.82838000  0.53457000  0.98653000  1.0
  H  H10  1  0.42551000  0.66967000  0.85335000  1.0
  H  H11  1  0.73785000  0.22768000  0.78359000  1.0
  H  H12  1  0.70684000  0.45399000  0.56571000  1.0
  H  H13  1  0.80427000  0.32901000  0.34954000  1.0
  H  H14  1  0.48011000  0.11756000  0.45583000  1.0
  H  H15  1  0.32922000  0.28691000  0.77596000  1.0
  H  H16  1  0.33303000  0.15438000  0.68190000  1.0
  C  C1  1  0.07451000  0.74931000  0.08266000  1.0
  C  C2  1  0.20438000  0.63130000  0.11081000  1.0
  C  C3  1  0.24277000  0.48901000  0.06329000  1.0
  C  C4  1  0.37655000  0.37994000  0.07585000  1.0
  C  C5  1  0.42636000  0.22955000  0.01842000  1.0
  C  C6  1  0.46769000  0.41208000  0.13955000  1.0
  C  C7  1  0.42269000  0.55164000  0.19308000  1.0
  C  C8  1  0.29256000  0.66266000  0.17818000  1.0
  C  C9  1  0.45824000  0.64626000  0.37119000  1.0
  C  C10  1  0.34012000  0.62123000  0.45956000  1.0
  C  C11  1  0.28541000  0.69105000  0.57927000  1.0
  C  C12  1  0.34866000  0.78804000  0.60791000  1.0
  C  C13  1  0.28957000  0.86790000  0.73184000  1.0
  C  C14  1  0.47017000  0.80950000  0.51910000  1.0
  C  C15  1  0.52993000  0.73687000  0.39964000  1.0
  C  C16  1  0.92549000  0.25069000  0.91734000  1.0
  C  C17  1  0.79562000  0.36870000  0.88919000  1.0
  C  C18  1  0.75723000  0.51099000  0.93671000  1.0
  C  C19  1  0.62345000  0.62007000  0.92415000  1.0
  C  C20  1  0.57365000  0.77046000  0.98158000  1.0
  C  C21  1  0.53231000  0.58792000  0.86045000  1.0
  C  C22  1  0.57732000  0.44836000  0.80692000  1.0
  C  C23  1  0.70744000  0.33734000  0.82182000  1.0
  C  C24  1  0.54176000  0.35374000  0.62881000  1.0
  C  C25  1  0.65989000  0.37877000  0.54044000  1.0
  C  C26  1  0.71459000  0.30895000  0.42073000  1.0
  C  C27  1  0.65134000  0.21196000  0.39209000  1.0
  C  C28  1  0.71043000  0.13211000  0.26816000  1.0
  C  C29  1  0.52983000  0.19050000  0.48089000  1.0
  C  C30  1  0.47007000  0.26313000  0.60036000  1.0
  N  N1  1  0.65634000  0.74785000  0.31299000  1.0
  N  N2  1  0.34366000  0.25215000  0.68701000  1.0
  O  O1  1  0.06327000  0.88358000  0.09554000  1.0
  O  O2  1  0.97596000  0.72058000  0.04552000  1.0
  O  O3  1  0.56689000  0.14604000  0.00028000  1.0
  O  O4  1  0.32695000  0.19310000  0.98845000  1.0
  O  O5  1  0.52044000  0.57911000  0.25051000  1.0
  O  O6  1  0.20033000  0.83393000  0.82369000  1.0
  O  O7  1  0.33242000  0.97359000  0.74960000  1.0
  O  O8  1  0.93673000  0.11643000  0.90446000  1.0
  O  O9  1  0.02404000  0.27943000  0.95448000  1.0
  O  O10  1  0.43311000  0.85397000  0.99972000  1.0
  O  O11  1  0.67306000  0.80690000  0.01155000  1.0
  O  O12  1  0.47956000  0.42089000  0.74949000  1.0
  O  O13  1  0.79967000  0.16607000  0.17631000  1.0
  O  O14  1  0.66758000  0.02641000  0.25040000  1.0
