# generated using pymatgen
data_H7C13(N2O)2
_symmetry_space_group_name_H-M   'P 1'
_cell_length_a   15.62120000
_cell_length_b   27.05671208
_cell_length_c   93.72700000
_cell_angle_alpha   90.00000000
_cell_angle_beta   90.00000000
_cell_angle_gamma   90.00000000
_symmetry_Int_Tables_number   1
_chemical_formula_structural   H7C13(N2O)2
_chemical_formula_sum   'H168 C312 N96 O48'
_cell_volume   39614.49548408
_cell_formula_units_Z   24
loop_
 _symmetry_equiv_pos_site_id
 _symmetry_equiv_pos_as_xyz
  1  'x, y, z'
loop_
 _atom_site_type_symbol
 _atom_site_label
 _atom_site_symmetry_multiplicity
 _atom_site_fract_x
 _atom_site_fract_y
 _atom_site_fract_z
 _atom_site_occupancy
  C  2  1  0.52924500  0.50757700  0.09434500  1
  C  3  1  0.61890400  0.50883800  0.09128900  1
  C  4  1  0.08023300  0.00279900  0.12016200  1
  C  8  1  0.03926800  0.02675400  0.41648000  1
  C  9  1  0.02527400  0.01818700  0.40159600  1
  C  10  1  0.05781900  0.04890400  0.39065500  1
  C  11  1  0.08737500  0.07046300  0.41951500  1
  C  15  1  0.01904400  0.00393000  0.91664700  1
  C  16  1  0.10805000  0.00017900  0.92000900  1
  C  17  1  0.15089600  0.00621100  0.89508300  1
  C  18  1  0.56622800  0.50903400  0.89088700  1
  C  21  1  0.03426900  0.03464200  0.26088000  1
  C  22  1  0.03058700  0.02359600  0.27580600  1
  C  23  1  0.06213400  0.05573200  0.28652900  1
  C  24  1  0.07287000  0.08107100  0.25751500  1
  C  28  1  0.08072300  0.01118700  0.66717400  1
  C  29  1  0.02895300  0.99671600  0.64212600  1
  C  32  1  0.63164500  0.51132500  0.34212800  1
  C  33  1  0.57277100  0.52786100  0.35251200  1
  C  34  1  0.59531300  0.53189300  0.36681500  1
  C  35  1  0.74277400  0.29479700  0.58655500  1
  C  37  1  0.76982600  0.26760200  0.57434900  1
  C  38  1  0.75541000  0.28252700  0.56041700  1
  C  41  1  0.69633600  0.33951700  0.58607000  1
  C  43  1  0.58346600  0.45470000  0.16922100  1
  C  44  1  0.55572700  0.48742000  0.15843300  1
  C  48  1  0.56766400  0.47683100  0.14404900  1
  C  51  1  0.05049400  0.06752700  0.83586700  1
  C  52  1  0.01560700  0.03722500  0.82506800  1
  C  53  1  0.02537400  0.04855500  0.81068100  1
  C  56  1  0.07175000  0.98804900  0.51013100  1
  C  57  1  0.15866800  0.98562800  0.51267700  1
  C  61  1  0.03718600  0.00702000  0.09434000  1
  C  62  1  0.12676400  0.00644500  0.09119500  1
  C  63  1  0.16756600  0.00315000  0.11628200  1
  C  64  1  0.57150700  0.50643900  0.12019200  1
  C  68  1  0.53705100  0.52750600  0.41648400  1
  C  69  1  0.52302000  0.51902400  0.40159700  1
  C  70  1  0.55616300  0.54957100  0.39066600  1
  C  71  1  0.58570200  0.57099600  0.41953700  1
  C  75  1  0.52168500  0.50379600  0.91657800  1
  C  76  1  0.61075500  0.50001900  0.91986600  1
  C  77  1  0.65297900  0.50611700  0.89491900  1
  C  78  1  0.06430300  0.00919000  0.89099300  1
  C  81  1  0.53452800  0.53455000  0.26089800  1
  C  82  1  0.53078600  0.52351800  0.27582300  1
  C  83  1  0.56224400  0.55568400  0.28654500  1
  C  84  1  0.57306400  0.58099700  0.25753200  1
  C  89  1  0.58075700  0.51117400  0.66718300  1
  C  90  1  0.52906000  0.49667800  0.64213400  1
  C  93  1  0.13238500  0.01108000  0.34204900  1
  C  94  1  0.07376500  0.02757300  0.35247800  1
  C  95  1  0.09664900  0.03155100  0.36676700  1
  C  96  1  0.24276900  0.79480300  0.58657900  1
  C  98  1  0.26985100  0.76759400  0.57437800  1
  C  99  1  0.25543400  0.78248500  0.56044200  1
  C  102  1  0.19629900  0.83950900  0.58608500  1
  C  104  1  0.08857500  0.95366500  0.16957000  1
  C  105  1  0.06239600  0.98592700  0.15856000  1
  C  109  1  0.07771000  0.97509500  0.14427500  1
  C  112  1  0.55043200  0.56763600  0.83581600  1
  C  113  1  0.51556200  0.53727800  0.82503100  1
  C  114  1  0.52544800  0.54850600  0.81064300  1
  C  117  1  0.56990500  0.48828500  0.51003600  1
  C  118  1  0.65695200  0.48597500  0.51246200  1
  C  123  1  0.51377000  0.50534100  0.44245300  1
  C  124  1  0.54214800  0.47929200  0.59419500  1
  C  125  1  0.60818900  0.41312000  0.61570900  1
  C  126  1  0.62450200  0.40358500  0.60118500  1
  C  127  1  0.59256000  0.43681500  0.59081600  1
  C  129  1  0.00815000  0.01168900  0.58328500  1
  C  130  1  0.96909300  0.05806600  0.58657300  1
  C  131  1  0.93423700  0.08993700  0.57610500  1
  C  137  1  0.51961500  0.50838700  0.23510900  1
  C  138  1  0.02942700  0.02353300  0.32336900  1
  C  140  1  0.01490800  0.01895500  0.30878500  1
  C  142  1  0.80520700  0.23241400  0.60162500  1
  C  143  1  0.83126300  0.20487000  0.58963300  1
  C  145  1  0.87484900  0.15955800  0.59078800  1
  C  147  1  0.03478800  0.00885500  0.18758000  1
  C  149  1  0.00811800  0.04169800  0.17654900  1
  C  150  1  0.96586500  0.08582600  0.17861200  1
  C  151  1  0.02855700  0.01770500  0.20221200  1
  C  155  1  0.01720200  0.00431500  0.44246200  1
  C  156  1  0.04202100  0.97926000  0.59418800  1
  C  157  1  0.10808400  0.91313600  0.61571400  1
  C  158  1  0.12442000  0.90358200  0.60119300  1
  C  159  1  0.09247500  0.93679000  0.59081800  1
  C  161  1  0.50827200  0.51174600  0.58329800  1
  C  162  1  0.46926100  0.55812700  0.58659800  1
  C  163  1  0.43433900  0.59001100  0.57614100  1
  C  169  1  0.01915900  0.00850900  0.23508300  1
  C  170  1  0.52908300  0.52360700  0.32337800  1
  C  172  1  0.51487300  0.51891300  0.30878900  1
  C  174  1  0.30524700  0.73247100  0.60166100  1
  C  175  1  0.33133900  0.70491400  0.58967400  1
  C  177  1  0.37496900  0.65962100  0.59083500  1
  C  179  1  0.53346300  0.50950300  0.18762000  1
  C  181  1  0.50535100  0.54283700  0.17681600  1
  C  182  1  0.46396900  0.58705100  0.17919500  1
  C  183  1  0.52953400  0.51782600  0.20229400  1
  C  185  1  0.52453800  0.49276800  0.73499000  1
  C  186  1  0.02453100  0.99276100  0.73499000  1
  C  187  1  0.65896200  0.50777300  0.11639900  1
  C  188  1  0.68340300  0.50908500  0.10191000  1
  C  191  1  0.10451800  0.09163600  0.39445300  1
  C  192  1  0.11893400  0.10312200  0.40893800  1
  C  195  1  0.17345700  0.00146100  0.90957100  1
  C  198  1  0.10042800  0.10069400  0.28241800  1
  C  199  1  0.10670200  0.11363200  0.26789700  1
  C  203  1  0.14138000  0.04687600  0.66387300  1
  C  210  1  0.19151800  0.00531200  0.10177600  1
  C  213  1  0.60337400  0.59209600  0.39448100  1
  C  214  1  0.61773100  0.60353900  0.40897200  1
  C  217  1  0.67598500  0.50134200  0.90939400  1
  C  220  1  0.60051100  0.60065600  0.28243400  1
  C  221  1  0.60682200  0.61358400  0.26791200  1
  C  225  1  0.64140900  0.54686900  0.66388400  1
  C  232  1  0.01776500  0.00522000  0.10926700  1
  C  241  1  0.81756200  0.51114400  0.08721100  1
  C  244  1  0.30790900  0.99635700  0.92419200  1
  C  246  1  0.16714300  0.18154800  0.25280000  1
  C  252  1  0.32594400  0.01071900  0.08715300  1
  C  255  1  0.81012300  0.49629400  0.92407800  1
  C  257  1  0.66721600  0.68151500  0.25281300  1
  C  264  1  0.02898600  0.98715100  0.65673100  1
  C  265  1  0.50923200  0.50673500  0.10924500  1
  C  266  1  0.52906800  0.48711700  0.65673800  1
  C  269  1  0.46440600  0.50752200  0.08327900  1
  C  270  1  0.99059900  0.01495000  0.06846800  1
  C  271  1  0.92774600  0.02224400  0.05776600  1
  C  272  1  0.33442400  0.50838300  0.06127100  1
  C  273  1  0.31005900  0.51012400  0.07575700  1
  C  274  1  0.37487000  0.51042300  0.08632800  1
  C  281  1  0.53046500  0.48154300  0.74987600  1
  C  283  1  0.55367700  0.46091600  0.72405200  1
  C  284  1  0.59398800  0.41607300  0.72785900  1
  C  285  1  0.60413300  0.40318900  0.74234800  1
  C  286  1  0.57142300  0.43548400  0.75292200  1
  C  289  1  0.99815000  0.01396800  0.76095300  1
  C  290  1  0.95164900  0.05825100  0.75790500  1
  C  291  1  0.91918000  0.09042000  0.76852600  1
  C  292  1  0.93339100  0.07885100  0.78301500  1
  C  293  1  0.97895800  0.03572800  0.78680900  1
  C  294  1  0.00938500  0.00437000  0.77585600  1
  C  305  1  0.50469300  0.49505600  0.42755000  1
  C  306  1  0.46140600  0.44970600  0.42449100  1
  C  307  1  0.42953700  0.41731900  0.43510800  1
  C  308  1  0.44005400  0.43008100  0.44959800  1
  C  309  1  0.48211400  0.47435800  0.45339600  1
  C  317  1  0.52743600  0.48661000  0.60912200  1
  C  318  1  0.55989700  0.45473300  0.61983200  1
  C  327  1  0.93852000  0.07602600  0.56163200  1
  C  328  1  0.97785600  0.03129600  0.55759900  1
  C  329  1  0.01050400  0.99989100  0.56840000  1
  C  340  1  0.95308200  0.00334600  0.92748200  1
  C  341  1  0.47445100  0.50730800  0.94239600  1
  C  342  1  0.41034000  0.50738900  0.95309200  1
  C  343  1  0.82018100  0.00398200  0.94888400  1
  C  344  1  0.79821000  0.00046300  0.93432900  1
  C  345  1  0.86430000  0.99949100  0.92402200  1
  C  347  1  0.50281500  0.50854600  0.90169200  1
  C  354  1  0.50287400  0.50139000  0.24999300  1
  C  355  1  0.45271700  0.45871700  0.25327500  1
  C  356  1  0.42244600  0.42531300  0.24280900  1
  C  357  1  0.44140800  0.43432000  0.22834000  1
  C  358  1  0.48897600  0.47630600  0.22431000  1
  C  365  1  0.47173600  0.50356700  0.99011900  1
  C  367  1  0.93889100  0.05164300  0.01042600  1
  C  368  1  0.94456200  0.00961600  0.01926000  1
  C  370  1  0.47744700  0.46542200  0.00056600  1
  C  371  1  0.49151800  0.41599200  0.99772100  1
  C  374  1  0.48510300  0.49803100  0.97552400  1
  C  376  1  0.91087800  0.00812000  0.03287100  1
  C  379  1  0.46356300  0.43921700  0.67534600  1
  C  380  1  0.51358500  0.46289700  0.68586000  1
  C  382  1  0.50765000  0.45005400  0.70019100  1
  C  386  1  0.96935600  0.04021400  0.33376000  1
  C  387  1  0.88825800  0.05788900  0.33076900  1
  C  392  1  0.59489200  0.01830900  0.09108200  1
  C  394  1  0.96045200  0.51183500  0.07590100  1
  C  395  1  0.90749600  0.51195300  0.08807900  1
  C  397  1  0.54122700  0.01459200  0.10332700  1
  C  399  1  0.57150500  0.01352400  0.11721600  1
  C  402  1  0.68524900  0.01888500  0.09150000  1
  C  404  1  0.71183900  0.29044900  0.75708500  1
  C  406  1  0.77675900  0.22760900  0.74249100  1
  C  407  1  0.80310700  0.20110700  0.75467300  1
  C  409  1  0.73754300  0.26377100  0.76947900  1
  C  411  1  0.71987500  0.27894500  0.78330100  1
  C  414  1  0.66743400  0.33591000  0.75732300  1
  C  416  1  0.84915300  0.15649900  0.75381700  1
  C  418  1  0.23351800  0.21356100  0.42368500  1
  C  420  1  0.29474900  0.27759600  0.40908200  1
  C  421  1  0.32142900  0.30399900  0.42126100  1
  C  423  1  0.26074900  0.23973300  0.43607900  1
  C  425  1  0.24707900  0.22319200  0.44989300  1
  C  428  1  0.18782800  0.16852600  0.42391500  1
  C  429  1  0.36517500  0.34936800  0.42039700  1
  C  437  1  0.07903400  0.49475200  0.91985200  1
  C  439  1  0.45244100  0.99513400  0.93478600  1
  C  440  1  0.39756500  0.99548500  0.92286900  1
  C  442  1  0.02471800  0.49443800  0.90764500  1
  C  444  1  0.05433700  0.49384000  0.89371700  1
  C  447  1  0.16933200  0.49568800  0.91936300  1
  C  449  1  0.21101500  0.22712100  0.25329100  1
  C  451  1  0.27317200  0.28962400  0.26834700  1
  C  452  1  0.30149200  0.31638900  0.25635100  1
  C  454  1  0.23837400  0.25417700  0.24107800  1
  C  456  1  0.22318400  0.23926600  0.22714900  1
  C  459  1  0.34758000  0.36087000  0.25749700  1
  C  468  1  0.49378400  0.51503900  0.85421500  1
  C  470  1  0.45808900  0.48413800  0.84342500  1
  C  471  1  0.41329600  0.44099500  0.84583300  1
  C  474  1  0.48335600  0.50914800  0.86889300  1
  C  476  1  0.00720300  0.99229500  0.52081400  1
  C  478  1  0.39883500  0.49590600  0.50239900  1
  C  479  1  0.46164700  0.49201700  0.49162800  1
  C  481  1  0.02063200  0.99078400  0.53550400  1
  C  482  1  0.43983900  0.49134100  0.47724100  1
  C  484  1  0.97192300  0.01136900  0.08339800  1
  C  485  1  0.48416800  0.50441000  0.06840100  1
  C  486  1  0.42181000  0.50572200  0.05746500  1
  C  487  1  0.84115800  0.02704000  0.06201700  1
  C  488  1  0.81771600  0.02127800  0.07644200  1
  C  489  1  0.88262700  0.01319900  0.08669900  1
  C  496  1  0.03047100  0.98154000  0.74987700  1
  C  498  1  0.05366000  0.96091300  0.72404900  1
  C  499  1  0.09398000  0.91607400  0.72785600  1
  C  500  1  0.10412300  0.90319000  0.74234500  1
  C  501  1  0.07142200  0.93547800  0.75292100  1
  C  504  1  0.49811200  0.51397500  0.76094700  1
  C  505  1  0.45163500  0.55826700  0.75790000  1
  C  506  1  0.41914900  0.59042900  0.76852200  1
  C  507  1  0.43331400  0.57883900  0.78300900  1
  C  508  1  0.47883600  0.53570300  0.78679800  1
  C  509  1  0.50930200  0.50435500  0.77584800  1
  C  520  1  0.00728600  0.99422500  0.42756100  1
  C  521  1  0.96340300  0.94903800  0.42452600  1
  C  522  1  0.93167000  0.91665800  0.43515800  1
  C  523  1  0.94289300  0.92928300  0.44964400  1
  C  524  1  0.98560800  0.97336900  0.45341600  1
  C  532  1  0.02728300  0.98660400  0.60911500  1
  C  533  1  0.05975800  0.95474800  0.61982800  1
  C  542  1  0.43848800  0.57612200  0.56166700  1
  C  543  1  0.47777200  0.53139000  0.55762000  1
  C  544  1  0.51053100  0.49997100  0.56840800  1
  C  555  1  0.45609800  0.50325300  0.92747700  1
  C  556  1  0.97094900  0.00690500  0.94242300  1
  C  557  1  0.90669700  0.00684500  0.95311300  1
  C  558  1  0.32376000  0.50410300  0.94897900  1
  C  559  1  0.30133900  0.50014500  0.93446800  1
  C  560  1  0.36718100  0.49913600  0.92410500  1
  C  562  1  0.00058300  0.00872900  0.90174600  1
  C  569  1  0.00254200  0.00150600  0.24997300  1
  C  570  1  0.95244700  0.95881800  0.25326600  1
  C  571  1  0.92220800  0.92536900  0.24281000  1
  C  572  1  0.94114400  0.93434300  0.22834000  1
  C  573  1  0.98858500  0.97635500  0.22429400  1
  C  580  1  0.97618500  0.00316100  0.98981100  1
  C  582  1  0.44013400  0.56150800  0.00880900  1
  C  583  1  0.44547600  0.52409100  0.01927300  1
  C  585  1  0.98404700  0.96075100  0.99872200  1
  C  586  1  0.00106400  0.91312100  0.99416500  1
  C  589  1  0.98862900  0.00369400  0.97513800  1
  C  591  1  0.42935800  0.53380400  0.03359100  1
  C  594  1  0.96352400  0.93923700  0.67534000  1
  C  595  1  0.01359000  0.96289800  0.68585200  1
  C  597  1  0.00770700  0.95002900  0.70018200  1
  C  601  1  0.46876700  0.54033400  0.33372100  1
  C  602  1  0.38770600  0.55794900  0.33067100  1
  C  607  1  0.08713700  0.51305800  0.09050500  1
  C  609  1  0.46937000  0.01761900  0.07618800  1
  C  610  1  0.41570300  0.01334700  0.08821400  1
  C  612  1  0.03422200  0.51364200  0.10289300  1
  C  614  1  0.06546800  0.51498800  0.11671900  1
  C  617  1  0.17753300  0.51250800  0.09073800  1
  C  619  1  0.21182800  0.79046000  0.75708700  1
  C  621  1  0.27675900  0.72762200  0.74249600  1
  C  622  1  0.30310100  0.70113000  0.75468000  1
  C  624  1  0.23751700  0.76379100  0.76948200  1
  C  626  1  0.21983000  0.77897700  0.78330300  1
  C  629  1  0.16741500  0.83592000  0.75732200  1
  C  631  1  0.34915900  0.65652300  0.75382100  1
  C  633  1  0.73321600  0.71362200  0.42374500  1
  C  635  1  0.79493400  0.77752800  0.40915400  1
  C  636  1  0.82192300  0.80381000  0.42133600  1
  C  638  1  0.76068900  0.73968900  0.43614300  1
  C  640  1  0.74688100  0.72315400  0.44995500  1
  C  643  1  0.68714900  0.66871300  0.42396700  1
  C  644  1  0.86612900  0.84903400  0.42047300  1
  C  652  1  0.57646000  0.99496000  0.91954700  1
  C  654  1  0.95423000  0.49502200  0.93491800  1
  C  655  1  0.89988700  0.49542500  0.92292500  1
  C  657  1  0.52162600  0.99453900  0.90740600  1
  C  659  1  0.55070300  0.99392200  0.89344600  1
  C  662  1  0.66672100  0.99602500  0.91903200  1
  C  664  1  0.71105300  0.72710100  0.25330500  1
  C  666  1  0.77317200  0.78961400  0.26836300  1
  C  667  1  0.80146200  0.81639100  0.25636800  1
  C  669  1  0.73838900  0.75417000  0.24109300  1
  C  671  1  0.72321100  0.73926800  0.22716300  1
  C  674  1  0.84749500  0.86089400  0.25751300  1
  C  683  1  0.99343800  0.01499200  0.85424700  1
  C  685  1  0.95797300  0.98406500  0.84344400  1
  C  686  1  0.91317500  0.94092200  0.84584200  1
  C  689  1  0.98237700  0.00920500  0.86891600  1
  C  691  1  0.50587000  0.49241700  0.52080800  1
  C  693  1  0.90110900  0.99602500  0.50226100  1
  C  694  1  0.96442200  0.99199200  0.49157500  1
  C  696  1  0.52002200  0.49093800  0.53548200  1
  C  697  1  0.94332500  0.99158600  0.47715800  1
  H  1  1  0.05187900  0.01224100  0.06488800  1
  H  5  1  0.63985700  0.51095900  0.08106900  1
  H  7  1  0.93705900  0.13677500  0.79437300  1
  H  12  1  0.04684000  0.03560100  0.44587000  1
  H  14  1  0.53543800  0.51282600  0.94587000  1
  H  19  1  0.12753700  0.99496800  0.93023300  1
  H  25  1  0.05780000  0.03637500  0.23169000  1
  H  30  1  0.04866300  0.02982100  0.63893600  1
  H  40  1  0.76694500  0.31772000  0.55814600  1
  H  42  1  0.67975000  0.35450700  0.57646900  1
  H  46  1  0.61304100  0.42202000  0.16683600  1
  H  49  1  0.59838200  0.44585200  0.14144700  1
  H  54  1  0.05635400  0.07945300  0.80808600  1
  H  59  1  0.07553900  0.97748900  0.53921100  1
  H  60  1  0.54574300  0.50079900  0.06502800  1
  H  65  1  0.14754200  0.00822600  0.08095900  1
  H  67  1  0.43702900  0.63674300  0.79437600  1
  H  72  1  0.54270100  0.53685300  0.44586600  1
  H  74  1  0.03191700  0.01186300  0.94591500  1
  H  79  1  0.63034100  0.49472300  0.93009000  1
  H  85  1  0.55833400  0.53623200  0.23173000  1
  H  87  1  0.42624400  0.59729200  0.01143800  1
  H  91  1  0.54872400  0.52979000  0.63894400  1
  H  101  1  0.26691900  0.81767700  0.55816600  1
  H  103  1  0.17970500  0.85447800  0.57648300  1
  H  107  1  0.11906900  0.92107100  0.16742000  1
  H  110  1  0.10777500  0.94369800  0.14189500  1
  H  115  1  0.55647900  0.57937500  0.80803600  1
  H  120  1  0.57520000  0.47779200  0.53911800  1
  H  121  1  0.99850700  0.02516600  0.73160800  1
  H  132  1  0.69379200  0.39293000  0.62876800  1
  H  133  1  0.60938200  0.42966700  0.58056300  1
  H  134  1  0.96722400  0.07054100  0.59679100  1
  H  144  1  0.81694100  0.22046700  0.61178300  1
  H  146  1  0.88922100  0.14555800  0.60063400  1
  H  152  1  0.01426300  0.05163000  0.20544700  1
  H  153  1  0.49850800  0.52517000  0.73160700  1
  H  164  1  0.19369700  0.89298600  0.62877600  1
  H  165  1  0.10933800  0.92963100  0.58056700  1
  H  166  1  0.46746700  0.57059300  0.59681800  1
  H  176  1  0.31698700  0.72054800  0.61182100  1
  H  178  1  0.38936100  0.64563200  0.60068200  1
  H  184  1  0.51696900  0.55180700  0.20567400  1
  H  190  1  0.74407900  0.47709700  0.12776900  1
  H  194  1  0.10134800  0.07967300  0.42971900  1
  H  201  1  0.08786300  0.15357000  0.29548400  1
  H  202  1  0.07529600  0.09305400  0.24726200  1
  H  205  1  0.17248900  0.04326900  0.65471800  1
  H  206  1  0.69225800  0.50052600  0.34481300  1
  H  207  1  0.65561500  0.52451200  0.36955200  1
  H  208  1  0.08438300  0.09878900  0.83349200  1
  H  209  1  0.18088200  0.99771000  0.52195100  1
  H  212  1  0.25311300  0.97200800  0.12745300  1
  H  216  1  0.59996300  0.58002100  0.42974800  1
  H  223  1  0.58782200  0.65355600  0.29548800  1
  H  224  1  0.57546800  0.59298700  0.24727900  1
  H  227  1  0.67252800  0.54326900  0.65473200  1
  H  228  1  0.19304700  0.00024500  0.34469100  1
  H  229  1  0.15708000  0.02431900  0.36945600  1
  H  230  1  0.58429400  0.59889600  0.83342900  1
  H  231  1  0.67958200  0.49817900  0.52169500  1
  H  233  1  0.42794900  0.58985300  0.18784800  1
  H  234  1  0.73135400  0.54161700  0.88339300  1
  H  235  1  0.92793800  0.08863000  0.18703600  1
  H  237  1  0.19276500  0.11673400  0.38263400  1
  H  239  1  0.22995100  0.04155100  0.88364500  1
  H  242  1  0.78881800  0.51044500  0.07741500  1
  H  243  1  0.17205600  0.15304600  0.43348300  1
  H  245  1  0.28017800  0.99647200  0.93407500  1
  H  247  1  0.15294600  0.16579000  0.24319300  1
  H  249  1  0.69217400  0.61677400  0.38270300  1
  H  253  1  0.29758200  0.01195600  0.07733000  1
  H  254  1  0.67118500  0.65327100  0.43353200  1
  H  256  1  0.78194500  0.49638600  0.93392500  1
  H  258  1  0.65304100  0.66575200  0.24320700  1
  H  259  1  0.54222800  0.47416600  0.77925000  1
  H  261  1  0.04232700  0.97418200  0.77925800  1
  H  262  1  0.03457000  0.98201300  0.97130900  1
  H  268  1  0.91894300  0.08499700  0.01432500  1
  H  276  1  0.95634100  0.00620900  0.11277200  1
  H  277  1  0.25331700  0.54046000  0.04943800  1
  H  278  1  0.35423600  0.51342800  0.09653200  1
  H  297  1  0.58684400  0.35920400  0.71612500  1
  H  298  1  0.57793900  0.42384600  0.76313100  1
  H  299  1  0.93817500  0.06776500  0.74768800  1
  H  304  1  0.48737700  0.48984100  0.39821000  1
  H  312  1  0.35146500  0.40299000  0.46099200  1
  H  313  1  0.45365400  0.43830100  0.41427100  1
  H  322  1  0.98868200  0.01440200  0.61258600  1
  H  331  1  0.53300700  0.46672600  0.56501500  1
  H  333  1  0.84597100  0.09730300  0.55010700  1
  H  348  1  0.44170600  0.51409700  0.89831900  1
  H  349  1  0.74331800  0.97196000  0.96148300  1
  H  350  1  0.84546700  0.99451700  0.91376600  1
  H  353  1  0.50837800  0.49031400  0.27928900  1
  H  361  1  0.45593800  0.37732200  0.21685700  1
  H  362  1  0.43476900  0.45161000  0.26349000  1
  H  373  1  0.47857300  0.40407600  0.98795900  1
  H  375  1  0.52110500  0.46994900  0.97225000  1
  H  377  1  0.87078400  0.98009500  0.03458700  1
  H  381  1  0.42003000  0.41245500  0.67792900  1
  H  383  1  0.46824100  0.42265200  0.70289400  1
  H  389  1  0.87219600  0.06436500  0.32071000  1
  H  391  1  0.95538800  0.01215800  0.30562600  1
  H  398  1  0.93539900  0.51108900  0.06583000  1
  H  401  1  0.61717900  0.03751600  0.11970100  1
  H  403  1  0.71605900  0.01515300  0.10103600  1
  H  410  1  0.79023400  0.21537400  0.73242200  1
  H  413  1  0.65952000  0.28815000  0.78522200  1
  H  415  1  0.65238300  0.35161100  0.76689500  1
  H  417  1  0.86441500  0.14240100  0.74402200  1
  H  424  1  0.30614900  0.29050300  0.39901100  1
  H  427  1  0.26202100  0.18830300  0.45191200  1
  H  430  1  0.37851200  0.36410100  0.41060300  1
  H  443  1  0.42919100  0.99555200  0.94497800  1
  H  446  1  0.10134900  0.47040700  0.89149600  1
  H  448  1  0.20011800  0.49616800  0.90976200  1
  H  455  1  0.28508700  0.30153700  0.27850300  1
  H  458  1  0.16352100  0.22930000  0.22496600  1
  H  460  1  0.36130200  0.37510400  0.26734000  1
  H  473  1  0.42177200  0.42348000  0.85501700  1
  H  475  1  0.43763000  0.48666900  0.87233000  1
  H  480  1  0.33514000  0.49847100  0.50000400  1
  H  483  1  0.37800600  0.49150000  0.47464100  1
  H  491  1  0.44748900  0.50512000  0.11264500  1
  H  492  1  0.74551500  0.01047800  0.05038700  1
  H  493  1  0.86202100  0.00887300  0.09684300  1
  H  512  1  0.08686800  0.85920100  0.71612100  1
  H  513  1  0.07793300  0.92384300  0.76313000  1
  H  514  1  0.43820300  0.56780300  0.74768200  1
  H  519  1  0.99023000  0.98876200  0.39821200  1
  H  527  1  0.85437600  0.90264300  0.46113800  1
  H  528  1  0.95478000  0.93783600  0.41430800  1
  H  537  1  0.48884700  0.51440700  0.61260000  1
  H  546  1  0.03301100  0.96664200  0.56501500  1
  H  548  1  0.34583000  0.59741400  0.55016900  1
  H  563  1  0.93964700  0.01428700  0.89831600  1
  H  564  1  0.25085200  0.47201500  0.96219400  1
  H  565  1  0.34810200  0.49389900  0.91386300  1
  H  568  1  0.00816800  0.99039600  0.27927400  1
  H  576  1  0.95582200  0.87728900  0.21688400  1
  H  577  1  0.93455100  0.95171000  0.26348300  1
  H  588  1  0.99971700  0.90648300  0.98377600  1
  H  592  1  0.41040900  0.56771000  0.03628700  1
  H  596  1  0.91999300  0.91247800  0.67792400  1
  H  598  1  0.96829900  0.92262300  0.70288500  1
  H  604  1  0.37184600  0.56432100  0.32059800  1
  H  606  1  0.45543800  0.51200900  0.30560300  1
  H  613  1  0.44504200  0.01878900  0.06607100  1
  H  616  1  0.11173900  0.53913300  0.11872700  1
  H  618  1  0.20864500  0.51220100  0.10030600  1
  H  625  1  0.29024100  0.71538500  0.73242700  1
  H  628  1  0.15947000  0.78817600  0.78522100  1
  H  630  1  0.15236200  0.85162400  0.76689300  1
  H  632  1  0.36442100  0.64243100  0.74402600  1
  H  639  1  0.80642800  0.79042700  0.39908400  1
  H  642  1  0.76156000  0.68822400  0.45196700  1
  H  645  1  0.87950500  0.86374000  0.41067700  1
  H  658  1  0.93043500  0.49541400  0.94507500  1
  H  661  1  0.59743400  0.97036700  0.89116800  1
  H  663  1  0.69751300  0.99645000  0.90942900  1
  H  670  1  0.78507900  0.80152200  0.27851900  1
  H  673  1  0.66356000  0.72927800  0.22498000  1
  H  675  1  0.86120200  0.87514200  0.26735500  1
  H  688  1  0.92160100  0.92339900  0.85502800  1
  H  690  1  0.93651500  0.98675100  0.87231500  1
  H  695  1  0.83755500  0.99876000  0.49977800  1
  H  698  1  0.88159500  0.99186700  0.47449000  1
  N  6  1  0.05465700  0.00385600  0.13381700  1
  N  13  1  0.04126500  0.03768400  0.37700500  1
  N  20  1  0.55015600  0.51454800  0.87696500  1
  N  26  1  0.06269700  0.04534000  0.30046000  1
  N  27  1  0.06988000  0.99762100  0.68112200  1
  N  31  1  0.60761600  0.50978400  0.32822800  1
  N  36  1  0.81195500  0.22414900  0.57662600  1
  N  45  1  0.02318100  0.02850900  0.16271600  1
  N  50  1  0.03762200  0.05550300  0.84975500  1
  N  55  1  0.54433000  0.48854000  0.49610500  1
  N  66  1  0.54588300  0.50695600  0.13383500  1
  N  73  1  0.53975200  0.53837600  0.37701100  1
  N  80  1  0.04877300  0.01472000  0.87706100  1
  N  86  1  0.56269400  0.54532400  0.30047800  1
  N  88  1  0.56987200  0.49762100  0.68113100  1
  N  92  1  0.10804500  0.00964300  0.32816400  1
  N  97  1  0.31201900  0.72415900  0.57666300  1
  N  106  1  0.51774600  0.53000400  0.16288600  1
  N  111  1  0.53780600  0.55558400  0.84970700  1
  N  116  1  0.04687100  0.98838100  0.49616400  1
  N  122  1  0.54484200  0.47470600  0.71039800  1
  N  135  1  0.89502500  0.13359400  0.57894300  1
  N  136  1  0.66996000  0.36209100  0.59816900  1
  N  139  1  0.99524900  0.04171300  0.34768000  1
  N  141  1  0.76226600  0.27542800  0.59958700  1
  N  148  1  0.57179300  0.46707000  0.18311400  1
  N  154  1  0.04482200  0.97469900  0.71039500  1
  N  167  1  0.39512400  0.63365700  0.57899100  1
  N  168  1  0.16990400  0.86209500  0.59818200  1
  N  171  1  0.49434300  0.54193500  0.34765700  1
  N  173  1  0.26226700  0.77547000  0.59961500  1
  N  180  1  0.07437900  0.96644200  0.18336500  1
  N  197  1  0.25846500  0.99915100  0.91241000  1
  N  219  1  0.76107500  0.49906600  0.91223200  1
  N  236  1  0.76880700  0.51037100  0.09914400  1
  N  238  1  0.16281100  0.14545400  0.41178400  1
  N  240  1  0.14631500  0.15708800  0.26489400  1
  N  248  1  0.27681700  0.00751400  0.09900200  1
  N  250  1  0.66201700  0.64572000  0.41183000  1
  N  251  1  0.64639100  0.65705200  0.26490800  1
  N  279  1  0.22464200  0.51131400  0.07860800  1
  N  280  1  0.95243600  0.02430000  0.04399700  1
  N  300  1  0.99101300  0.02265100  0.80045600  1
  N  301  1  0.87468300  0.13252500  0.76575500  1
  N  302  1  0.64532200  0.35997000  0.74519600  1
  N  314  1  0.49592100  0.48677700  0.46704200  1
  N  315  1  0.38857900  0.37404000  0.43233500  1
  N  336  1  0.97791400  0.02060600  0.54367500  1
  N  339  1  0.54404300  0.45960000  0.63376200  1
  N  351  1  0.71346700  0.99836000  0.93116600  1
  N  352  1  0.42580500  0.51366500  0.96698000  1
  N  363  1  0.50551000  0.48152100  0.21039600  1
  N  364  1  0.37654700  0.38388600  0.24565100  1
  N  366  1  0.95424800  0.04660400  0.99621200  1
  N  369  1  0.46335000  0.47769900  0.01450200  1
  N  378  1  0.47296700  0.45229400  0.66146800  1
  N  393  1  0.04674500  0.51221200  0.07761500  1
  N  396  1  0.45496400  0.01221100  0.10115500  1
  N  405  1  0.73311900  0.27059700  0.74419700  1
  N  408  1  0.78182900  0.22082300  0.76753200  1
  N  419  1  0.25233600  0.23421000  0.41079500  1
  N  422  1  0.30280000  0.28342400  0.43412000  1
  N  438  1  0.53826000  0.99520800  0.93262300  1
  N  441  1  0.93847000  0.49511800  0.90991900  1
  N  450  1  0.23018000  0.24662000  0.26631900  1
  N  453  1  0.28237900  0.29701700  0.24334700  1
  N  469  1  0.47117900  0.49683300  0.82949400  1
  N  477  1  0.92478700  0.99577700  0.51618400  1
  N  494  1  0.73258700  0.02255300  0.07945700  1
  N  495  1  0.44673900  0.50275800  0.04381400  1
  N  515  1  0.49086600  0.52262000  0.80044000  1
  N  516  1  0.37466300  0.63254100  0.76575700  1
  N  517  1  0.14531600  0.85997000  0.74519300  1
  N  529  1  0.99969800  0.98567200  0.46706000  1
  N  530  1  0.89012900  0.87354900  0.43240600  1
  N  551  1  0.47752200  0.52070200  0.54369700  1
  N  554  1  0.04388300  0.95963100  0.63375600  1
  N  566  1  0.21637700  0.49802700  0.93145700  1
  N  567  1  0.92213200  0.01097000  0.96711800  1
  N  578  1  0.00538400  0.98139600  0.21038200  1
  N  579  1  0.87639900  0.88392000  0.24566400  1
  N  581  1  0.45353800  0.54988100  0.99490900  1
  N  584  1  0.96512300  0.96624300  0.01282000  1
  N  593  1  0.97288900  0.95233100  0.66146200  1
  N  608  1  0.55543000  0.01971900  0.07811300  1
  N  611  1  0.94766900  0.51286600  0.10094100  1
  N  620  1  0.23311300  0.77060600  0.74419900  1
  N  623  1  0.28181500  0.72084400  0.76753900  1
  N  634  1  0.75216900  0.73425600  0.41086000  1
  N  637  1  0.80314600  0.78325700  0.43419300  1
  N  653  1  0.04022600  0.49501500  0.93288200  1
  N  656  1  0.43547400  0.99516000  0.90980000  1
  N  665  1  0.73020700  0.74659700  0.26633400  1
  N  668  1  0.78235900  0.79702100  0.24336400  1
  N  684  1  0.97117900  0.99677900  0.82951700  1
  N  692  1  0.42320600  0.49572100  0.51629100  1
  O  39  1  0.76886400  0.25411500  0.55051900  1
  O  47  1  0.00836000  0.12282000  0.17619900  1
  O  58  1  0.19816200  0.95083800  0.50759900  1
  O  100  1  0.26894200  0.75405900  0.55054900  1
  O  108  1  0.50616500  0.62397000  0.17655100  1
  O  119  1  0.69624700  0.45113700  0.50736800  1
  O  128  1  0.63707900  0.38084700  0.62583300  1
  O  160  1  0.13698800  0.88088900  0.62584300  1
  O  189  1  0.71963100  0.51044900  0.12685000  1
  O  193  1  0.13141200  0.12329300  0.38404300  1
  O  196  1  0.21342800  0.00673600  0.88488700  1
  O  200  1  0.13434800  0.13125000  0.29255400  1
  O  204  1  0.18415900  0.06503800  0.67346900  1
  O  211  1  0.22861100  0.00538600  0.12668300  1
  O  215  1  0.63088000  0.62360400  0.38407700  1
  O  218  1  0.71522600  0.50675700  0.88467500  1
  O  222  1  0.63434100  0.63124000  0.29257000  1
  O  226  1  0.68417100  0.56503100  0.67348200  1
  O  260  1  0.75695600  0.25929000  0.79329100  1
  O  263  1  0.25691300  0.75934100  0.79329500  1
  O  267  1  0.78029200  0.04009000  0.05225000  1
  O  275  1  0.27342900  0.50636500  0.05086500  1
  O  288  1  0.62748600  0.38659100  0.71744900  1
  O  295  1  0.89918100  0.10790100  0.79346600  1
  O  311  1  0.41367500  0.39840700  0.46004700  1
  O  330  1  0.90627400  0.10678200  0.55139100  1
  O  346  1  0.75697100  0.00632700  0.95893400  1
  O  360  1  0.41158000  0.40276100  0.21810000  1
  O  372  1  0.55383000  0.39711000  0.00340000  1
  O  388  1  0.82898300  0.04537900  0.33847900  1
  O  400  1  0.52316600  0.00369400  0.12708000  1
  O  426  1  0.25976900  0.25138600  0.45987800  1
  O  445  1  0.00501800  0.50108700  0.88380100  1
  O  457  1  0.26084500  0.25973300  0.21735800  1
  O  472  1  0.34106200  0.43793500  0.84091000  1
  O  503  1  0.12749400  0.88659200  0.71744600  1
  O  510  1  0.39912400  0.60788500  0.79346400  1
  O  526  1  0.91645800  0.89770900  0.46011200  1
  O  545  1  0.40614000  0.60689100  0.55143800  1
  O  561  1  0.26093300  0.50625800  0.95910000  1
  O  575  1  0.91140800  0.90271000  0.21811100  1
  O  587  1  0.05416300  0.88955600  0.00090600  1
  O  603  1  0.32828500  0.54549800  0.33835700  1
  O  615  1  0.01765100  0.50734800  0.12681300  1
  O  641  1  0.75975600  0.75129800  0.45994400  1
  O  660  1  0.50112600  0.00147200  0.88358300  1
  O  672  1  0.76083800  0.75976200  0.21737300  1
  O  687  1  0.84096800  0.93786500  0.84090800  1
