# generated using pymatgen
data_CuH8C12(NO2)2
_symmetry_space_group_name_H-M   'P 1'
_cell_length_a   4.56508000
_cell_length_b   11.41858000
_cell_length_c   12.63893655
_cell_angle_alpha   89.22831744
_cell_angle_beta   79.73060905
_cell_angle_gamma   84.60648000
_symmetry_Int_Tables_number   1
_chemical_formula_structural   CuH8C12(NO2)2
_chemical_formula_sum   'Cu2 H16 C24 N4 O8'
_cell_volume   645.39852621
_cell_formula_units_Z   2
loop_
 _symmetry_equiv_pos_site_id
 _symmetry_equiv_pos_as_xyz
  1  'x, y, z'
loop_
 _atom_site_type_symbol
 _atom_site_label
 _atom_site_symmetry_multiplicity
 _atom_site_fract_x
 _atom_site_fract_y
 _atom_site_fract_z
 _atom_site_occupancy
  Cu  Cu1  1  0.93472000  0.21833000  0.23000000  1.0
  Cu  Cu2  1  0.16272000  0.71831000  0.77007000  1.0
  H  H1  1  0.04692000  0.49422000  0.66608000  1.0
  H  H2  1  0.27604000  0.38040000  0.49569000  1.0
  H  H3  1  0.99458000  0.60227000  0.45464000  1.0
  H  H4  1  0.72617000  0.71599000  0.61721000  1.0
  H  H5  1  0.62912000  0.88856000  0.79019000  1.0
  H  H6  1  0.33781000  0.03314000  0.92350000  1.0
  H  H7  1  0.98960000  0.95009000  0.12588000  1.0
  H  H8  1  0.23683000  0.79353000  0.99062000  1.0
  H  H9  1  0.71128667  0.99480000  0.33333333  1.0
  H  H10  1  0.77140000  0.88021000  0.50266000  1.0
  H  H11  1  0.45024000  0.10068000  0.54584000  1.0
  H  H12  1  0.34358000  0.21502000  0.38408000  1.0
  H  H13  1  0.41944000  0.38888000  0.20921000  1.0
  H  H14  1  0.26403000  0.53384000  0.07592000  1.0
  H  H15  1  0.11931000  0.45005000  0.87585000  1.0
  H  H16  1  0.22811000  0.29300000  0.01040000  1.0
  C  C1  1  0.24723000  0.51780000  0.61366000  1.0
  C  C2  1  0.38951000  0.44942000  0.52500000  1.0
  C  C3  1  0.66572000  0.47485000  0.46944000  1.0
  C  C4  1  0.79307000  0.57282000  0.50235000  1.0
  C  C5  1  0.63578000  0.63919000  0.59006000  1.0
  C  C6  1  0.82364000  0.40268000  0.37473000  1.0
  C  C7  1  0.69840000  0.90130000  0.86688000  1.0
  C  C8  1  0.52619000  0.97838000  0.94433000  1.0
  C  C9  1  0.63211000  0.99555000  0.04052000  1.0
  C  C10  1  0.89735000  0.93317000  0.05473000  1.0
  C  C11  1  0.05327000  0.85491000  0.97590000  1.0
  C  C12  1  0.47953000  0.08157000  0.12602000  1.0
  C  C13  1  0.86061000  0.01773000  0.38581000  1.0
  C  C14  1  0.91483000  0.94889000  0.47393000  1.0
  C  C15  1  0.13587000  0.97386000  0.52998000  1.0
  C  C16  1  0.29589000  0.07169000  0.49778000  1.0
  C  C17  1  0.22575000  0.13847000  0.41063000  1.0
  C  C18  1  0.19862000  0.90240000  0.62505000  1.0
  C  C19  1  0.56613000  0.40158000  0.13300000  1.0
  C  C20  1  0.47284000  0.47871000  0.05562000  1.0
  C  C21  1  0.67513000  0.49534000  0.95988000  1.0
  C  C22  1  0.95451000  0.43282000  0.94615000  1.0
  C  C23  1  0.02999000  0.35450000  0.02486000  1.0
  C  C24  1  0.60866000  0.58132000  0.87461000  1.0
  N  N1  1  0.37472000  0.61062000  0.64643000  1.0
  N  N2  1  0.95098000  0.83902000  0.88271000  1.0
  N  N3  1  0.02053000  0.11047000  0.35379000  1.0
  N  N4  1  0.83408000  0.33889000  0.11756000  1.0
  O  O1  1  0.68182000  0.31703000  0.34880000  1.0
  O  O2  1  0.07537000  0.42796000  0.32822000  1.0
  O  O3  1  0.23553000  0.13855000  0.10941000  1.0
  O  O4  1  0.60207000  0.09263000  0.20673000  1.0
  O  O5  1  0.03108000  0.81694000  0.65072000  1.0
  O  O6  1  0.40288000  0.92815000  0.67218000  1.0
  O  O7  1  0.34834000  0.63868000  0.89065000  1.0
  O  O8  1  0.81392000  0.59134000  0.79475000  1.0
