# generated using pymatgen
data_La2Ni3H30C24(NO4)6
_symmetry_space_group_name_H-M   'P 1'
_cell_length_a   7.60140000
_cell_length_b   13.19059987
_cell_length_c   13.23681000
_cell_angle_alpha   60.11972389
_cell_angle_beta   89.99048000
_cell_angle_gamma   89.99408960
_symmetry_Int_Tables_number   1
_chemical_formula_structural   La2Ni3H30C24(NO4)6
_chemical_formula_sum   'La2 Ni3 H30 C24 N6 O24'
_cell_volume   1150.78653266
_cell_formula_units_Z   1
loop_
 _symmetry_equiv_pos_site_id
 _symmetry_equiv_pos_as_xyz
  1  'x, y, z'
loop_
 _atom_site_type_symbol
 _atom_site_label
 _atom_site_symmetry_multiplicity
 _atom_site_fract_x
 _atom_site_fract_y
 _atom_site_fract_z
 _atom_site_occupancy
  La  La1  1  0.66578000  0.66632000  0.66696000  1.0
  La  La2  1  0.33424000  0.33358000  0.33319000  1.0
  Ni  Ni1  1  0.99995000  0.99968000  0.50023000  1.0
  Ni  Ni2  1  0.00014000  0.49929000  0.00088000  1.0
  Ni  Ni3  1  0.99995000  0.50005000  0.50055000  1.0
  H  H1  1  0.29711000  0.81693000  0.74036000  1.0
  H  H2  1  0.41098000  0.95091000  0.66056000  1.0
  H  H3  1  0.16687000  0.04951000  0.63680000  1.0
  H  H4  1  0.92537000  0.97490000  0.75006000  1.0
  H  H5  1  0.06865000  0.85382000  0.82921000  1.0
  H  H6  1  0.29746000  0.44184000  0.81699000  1.0
  H  H7  1  0.41122000  0.38836000  0.95050000  1.0
  H  H8  1  0.16708000  0.31323000  0.04867000  1.0
  H  H9  1  0.92477000  0.27506000  0.97419000  1.0
  H  H10  1  0.06790000  0.31613000  0.85348000  1.0
  H  H11  1  0.29784000  0.74091000  0.44274000  1.0
  H  H12  1  0.41136000  0.66062000  0.38887000  1.0
  H  H13  1  0.16703000  0.63693000  0.31436000  1.0
  H  H14  1  0.92519000  0.74990000  0.27615000  1.0
  H  H15  1  0.06824000  0.82997000  0.31725000  1.0
  H  H16  1  0.70291000  0.18305000  0.25966000  1.0
  H  H17  1  0.58905000  0.04910000  0.33943000  1.0
  H  H18  1  0.83312000  0.95050000  0.36318000  1.0
  H  H19  1  0.07464000  0.02511000  0.24994000  1.0
  H  H20  1  0.93136000  0.14616000  0.17083000  1.0
  H  H21  1  0.70249000  0.55816000  0.18304000  1.0
  H  H22  1  0.58877000  0.61165000  0.04950000  1.0
  H  H23  1  0.83309000  0.68657000  0.95137000  1.0
  H  H24  1  0.07521000  0.72493000  0.02581000  1.0
  H  H25  1  0.93212000  0.68390000  0.14654000  1.0
  H  H26  1  0.70218000  0.25910000  0.55726000  1.0
  H  H27  1  0.58864000  0.33938000  0.61113000  1.0
  H  H28  1  0.83289000  0.36299000  0.68575000  1.0
  H  H29  1  0.07483000  0.25009000  0.72386000  1.0
  H  H30  1  0.93176000  0.17003000  0.68275000  1.0
  C  C1  1  0.32040000  0.87838000  0.55820000  1.0
  C  C2  1  0.29520000  0.90179000  0.65907000  1.0
  C  C3  1  0.00537000  0.90865000  0.74417000  1.0
  C  C4  1  0.87782000  0.83290000  0.72159000  1.0
  C  C5  1  0.32014000  0.56308000  0.87870000  1.0
  C  C6  1  0.29527000  0.43865000  0.90165000  1.0
  C  C7  1  0.00504000  0.34683000  0.90826000  1.0
  C  C8  1  0.87796000  0.44543000  0.83285000  1.0
  C  C9  1  0.32082000  0.55805000  0.56318000  1.0
  C  C10  1  0.29565000  0.65928000  0.43929000  1.0
  C  C11  1  0.00531000  0.74445000  0.34777000  1.0
  C  C12  1  0.87790000  0.72163000  0.44588000  1.0
  C  C13  1  0.67965000  0.12160000  0.44182000  1.0
  C  C14  1  0.70484000  0.09820000  0.34095000  1.0
  C  C15  1  0.99465000  0.09134000  0.25586000  1.0
  C  C16  1  0.12219000  0.16708000  0.27847000  1.0
  C  C17  1  0.67972000  0.43689000  0.12140000  1.0
  C  C18  1  0.70470000  0.56135000  0.09838000  1.0
  C  C19  1  0.99496000  0.65317000  0.09178000  1.0
  C  C20  1  0.12209000  0.55461000  0.16724000  1.0
  C  C21  1  0.67927000  0.44198000  0.43683000  1.0
  C  C22  1  0.70436000  0.34073000  0.56071000  1.0
  C  C23  1  0.99470000  0.25555000  0.65224000  1.0
  C  C24  1  0.12208000  0.27842000  0.55410000  1.0
  N  N1  1  0.13313000  0.96820000  0.64905000  1.0
  N  N2  1  0.13330000  0.38228000  0.96792000  1.0
  N  N3  1  0.13345000  0.64921000  0.38319000  1.0
  N  N4  1  0.86690000  0.03176000  0.35100000  1.0
  N  N5  1  0.86675000  0.61758000  0.03221000  1.0
  N  N6  1  0.86651000  0.35075000  0.61691000  1.0
  O  O1  1  0.45863000  0.82259000  0.56089000  1.0
  O  O2  1  0.20713000  0.91441000  0.47705000  1.0
  O  O3  1  0.88516000  0.83850000  0.62152000  1.0
  O  O4  1  0.76781000  0.76840000  0.79798000  1.0
  O  O5  1  0.45758000  0.61655000  0.82242000  1.0
  O  O6  1  0.20742000  0.60791000  0.91576000  1.0
  O  O7  1  0.88564000  0.53997000  0.83890000  1.0
  O  O8  1  0.76794000  0.43360000  0.76826000  1.0
  O  O9  1  0.45918000  0.56052000  0.61612000  1.0
  O  O10  1  0.20732000  0.47682000  0.60811000  1.0
  O  O11  1  0.88563000  0.62142000  0.54021000  1.0
  O  O12  1  0.76736000  0.79808000  0.43386000  1.0
  O  O13  1  0.54142000  0.17742000  0.43910000  1.0
  O  O14  1  0.79287000  0.08554000  0.52299000  1.0
  O  O15  1  0.11483000  0.16144000  0.37854000  1.0
  O  O16  1  0.23217000  0.23160000  0.20205000  1.0
  O  O17  1  0.54225000  0.38348000  0.17757000  1.0
  O  O18  1  0.79245000  0.39184000  0.08455000  1.0
  O  O19  1  0.11444000  0.45994000  0.16136000  1.0
  O  O20  1  0.23212000  0.56645000  0.23176000  1.0
  O  O21  1  0.54092000  0.43948000  0.38387000  1.0
  O  O22  1  0.79278000  0.52319000  0.39203000  1.0
  O  O23  1  0.11433000  0.37864000  0.45984000  1.0
  O  O24  1  0.23263000  0.20192000  0.56615000  1.0
