# generated using pymatgen
data_H15C17N4
_symmetry_space_group_name_H-M   'P 1'
_cell_length_a   28.09690000
_cell_length_b   28.09690000
_cell_length_c   37.44650000
_cell_angle_alpha   90.00000000
_cell_angle_beta   90.00000000
_cell_angle_gamma   90.00000000
_symmetry_Int_Tables_number   1
_chemical_formula_structural   H15C17N4
_chemical_formula_sum   'H240 C272 N64'
_cell_volume   29561.60729563
_cell_formula_units_Z   16
loop_
 _symmetry_equiv_pos_site_id
 _symmetry_equiv_pos_as_xyz
  1  'x, y, z'
loop_
 _atom_site_type_symbol
 _atom_site_label
 _atom_site_symmetry_multiplicity
 _atom_site_fract_x
 _atom_site_fract_y
 _atom_site_fract_z
 _atom_site_occupancy
  H  9  1  0.04466800  0.04063200  0.16103000  1
  H  17  1  0.04669100  0.35083700  0.09144500  1
  H  19  1  0.06936400  0.26786700  0.20182600  1
  H  20  1  0.06421200  0.18916300  0.21971500  1
  H  21  1  0.01567200  0.20208700  0.03587900  1
  H  22  1  0.02252700  0.12277200  0.05233800  1
  H  24  1  0.03108100  0.01572900  0.10364000  1
  H  26  1  0.97463100  0.28739300  0.04700500  1
  H  28  1  0.11165100  0.35781500  0.13663500  1
  H  30  1  0.99029400  0.11003500  0.20820400  1
  H  39  1  0.60171800  0.33705900  0.61775400  1
  H  47  1  0.48274400  0.04459600  0.67317400  1
  H  49  1  0.57398900  0.16179800  0.73488400  1
  H  50  1  0.60860500  0.23444100  0.71934900  1
  H  51  1  0.47398800  0.14743500  0.57361600  1
  H  52  1  0.49703400  0.22611000  0.56172200  1
  H  54  1  0.51458700  0.31727300  0.56528200  1
  H  56  1  0.44288200  0.04896300  0.61229800  1
  H  58  1  0.46953200  0.11111200  0.73460600  1
  H  60  1  0.66629400  0.29249300  0.67221600  1
  H  69  1  0.10714100  0.52947100  0.62294800  1
  H  77  1  0.00399600  0.82334700  0.55461000  1
  H  79  1  0.09290300  0.69847200  0.49982300  1
  H  80  1  0.12339500  0.62512200  0.51883900  1
  H  81  1  0.99143700  0.72977500  0.65931200  1
  H  82  1  0.01181800  0.65156700  0.67520400  1
  H  84  1  0.02126400  0.55946700  0.67413600  1
  H  86  1  0.96127700  0.82573500  0.61278100  1
  H  88  1  0.99699600  0.74967400  0.49345600  1
  H  90  1  0.17387900  0.56527900  0.56483600  1
  H  99  1  0.61737400  0.83237700  0.12136800  1
  H  107  1  0.47967600  0.54847000  0.17690600  1
  H  109  1  0.48420600  0.64732400  0.07454600  1
  H  110  1  0.51324900  0.72371000  0.06161200  1
  H  111  1  0.56178400  0.66939100  0.24230500  1
  H  112  1  0.59852500  0.74117100  0.22737600  1
  H  114  1  0.65720100  0.78600500  0.20047000  1
  H  116  1  0.46374500  0.61169700  0.23729500  1
  H  118  1  0.44486000  0.54917100  0.11683100  1
  H  120  1  0.53674300  0.81185100  0.06169700  1
  H  129  1  0.66514100  0.44574000  0.36778100  1
  H  137  1  0.98933700  0.44032600  0.37887700  1
  H  139  1  0.87422100  0.44867200  0.28583200  1
  H  140  1  0.79100900  0.45252700  0.28298800  1
  H  141  1  0.86348300  0.44063600  0.46403300  1
  H  142  1  0.78026400  0.44151500  0.46122900  1
  H  144  1  0.69768900  0.45050900  0.45244300  1
  H  146  1  0.94866700  0.41905000  0.45715400  1
  H  148  1  0.95599200  0.45780900  0.29534200  1
  H  150  1  0.70543700  0.43034300  0.28899400  1
  H  159  1  0.98918000  0.94898000  0.85912500  1
  H  167  1  0.66494900  0.93044400  0.85692200  1
  H  169  1  0.78677400  0.92851500  0.76901500  1
  H  170  1  0.87006800  0.93017700  0.76968000  1
  H  171  1  0.78361000  0.94832500  0.94692500  1
  H  172  1  0.86678300  0.95555400  0.94736800  1
  H  174  1  0.94810800  0.93872300  0.94159700  1
  H  176  1  0.70035500  0.94736800  0.94010500  1
  H  178  1  0.70240100  0.90768700  0.77860700  1
  H  180  1  0.94868100  0.95185200  0.77527200  1
  H  189  1  0.16481700  0.42328500  0.86917400  1
  H  197  1  0.48933200  0.42666300  0.87054700  1
  H  199  1  0.36750700  0.43485200  0.95896300  1
  H  200  1  0.28428700  0.43014400  0.95867500  1
  H  201  1  0.36950300  0.41442300  0.78089300  1
  H  202  1  0.28603200  0.41617000  0.78048700  1
  H  204  1  0.20194200  0.41335500  0.78638400  1
  H  206  1  0.45099600  0.43565700  0.78786300  1
  H  208  1  0.44790400  0.41991100  0.95397000  1
  H  210  1  0.19914000  0.44079200  0.94983800  1
  H  219  1  0.49237800  0.92404500  0.36287000  1
  H  227  1  0.17113600  0.95501600  0.38893400  1
  H  229  1  0.30402400  0.95404800  0.46740000  1
  H  230  1  0.38671200  0.94888800  0.46050500  1
  H  231  1  0.27630700  0.92879600  0.29105000  1
  H  232  1  0.35884700  0.92017300  0.28435500  1
  H  234  1  0.44398500  0.93864800  0.28482800  1
  H  236  1  0.19207000  0.92992800  0.30578000  1
  H  238  1  0.22100200  0.97945300  0.46322100  1
  H  240  1  0.46410100  0.92166800  0.44873100  1
  H  247  1  0.97280100  0.03020300  0.05134400  1
  H  251  1  0.13662000  0.00062200  0.99644100  1
  H  252  1  0.17394400  0.07998000  0.99929000  1
  H  253  1  0.11478000  0.10960900  0.99115100  1
  H  254  1  0.10858100  0.06962700  0.93348200  1
  H  255  1  0.16750100  0.03956700  0.94148300  1
  H  257  1  0.09313400  0.00780800  0.06466600  1
  H  258  1  0.09395500  0.06928100  0.05578800  1
  H  260  1  0.96964400  0.03552100  0.91248100  1
  H  261  1  0.91975600  0.02409900  0.93970100  1
  H  268  1  0.65637900  0.30870000  0.54618500  1
  H  272  1  0.50601300  0.34926900  0.47860000  1
  H  273  1  0.48228800  0.27371900  0.45019200  1
  H  274  1  0.54648400  0.25745800  0.44226100  1
  H  275  1  0.55638500  0.32840700  0.40519400  1
  H  276  1  0.49242100  0.34516400  0.41327500  1
  H  278  1  0.53483800  0.27184700  0.51855400  1
  H  279  1  0.58611500  0.25096500  0.53946600  1
  H  281  1  0.69610500  0.35414200  0.41890200  1
  H  282  1  0.73429500  0.37112300  0.45382900  1
  H  289  1  0.16318000  0.55727500  0.69022800  1
  H  293  1  0.01461700  0.52900500  0.76363900  1
  H  294  1  0.99838400  0.60686800  0.79146300  1
  H  295  1  0.06404400  0.61862300  0.79664600  1
  H  296  1  0.07138400  0.54823100  0.83464200  1
  H  297  1  0.00590300  0.53596700  0.82931700  1
  H  299  1  0.04549400  0.60247600  0.72085800  1
  H  300  1  0.09725600  0.62056300  0.69911000  1
  H  302  1  0.20814400  0.51195000  0.81558800  1
  H  303  1  0.24174200  0.48897600  0.77991100  1
  H  310  1  0.52999400  0.85866400  0.18400000  1
  H  314  1  0.64737800  0.85838700  0.28607000  1
  H  315  1  0.66867200  0.77351600  0.29831900  1
  H  316  1  0.60566100  0.75374500  0.28989900  1
  H  317  1  0.57723100  0.80482600  0.33681700  1
  H  318  1  0.63984600  0.82488100  0.34608300  1
  H  320  1  0.61613900  0.88025700  0.18742800  1
  H  321  1  0.65032400  0.86200300  0.22336600  1
  H  323  1  0.44414200  0.83665100  0.30754300  1
  H  324  1  0.41593900  0.86177100  0.26978000  1
  H  331  1  0.17758700  0.85751800  0.42001600  1
  H  335  1  0.18630100  0.87294000  0.55562000  1
  H  336  1  0.17181100  0.95847600  0.56449900  1
  H  337  1  0.12975100  0.95982100  0.52533100  1
  H  338  1  0.07810100  0.90197500  0.55532900  1
  H  339  1  0.12006100  0.90037000  0.59454200  1
  H  341  1  0.24583800  0.88327200  0.46632700  1
  H  342  1  0.22522600  0.91884200  0.50113100  1
  H  344  1  0.03105400  0.79674600  0.44889700  1
  H  345  1  0.06732500  0.74778400  0.45810700  1
  H  352  1  0.64253400  0.53902700  0.33394300  1
  H  356  1  0.68869900  0.53603400  0.20160200  1
  H  357  1  0.69646800  0.44977900  0.19172200  1
  H  358  1  0.64711400  0.43740800  0.22447700  1
  H  359  1  0.59170900  0.48312100  0.18743600  1
  H  360  1  0.64086400  0.49566700  0.15455700  1
  H  362  1  0.72466400  0.53128600  0.30158000  1
  H  363  1  0.72440700  0.49958500  0.26141900  1
  H  365  1  0.49613700  0.56790600  0.28487300  1
  H  366  1  0.52146000  0.62454900  0.28143400  1
  H  373  1  0.55285100  0.37212300  0.81165500  1
  H  377  1  0.43824800  0.30031000  0.72034000  1
  H  378  1  0.38915300  0.36973500  0.70442900  1
  H  379  1  0.44171100  0.41068900  0.71001100  1
  H  380  1  0.48426000  0.36776300  0.66277800  1
  H  381  1  0.43191200  0.32658000  0.65711400  1
  H  383  1  0.46446800  0.33671600  0.81538500  1
  H  384  1  0.42841000  0.35315800  0.77923200  1
  H  386  1  0.65419000  0.36112900  0.71361300  1
  H  387  1  0.65253500  0.30340400  0.73131600  1
  H  394  1  0.05242100  0.49705100  0.55682900  1
  H  398  1  0.14628200  0.52237800  0.44468300  1
  H  399  1  0.15999700  0.60920200  0.43751000  1
  H  400  1  0.09843800  0.62298700  0.45452600  1
  H  401  1  0.06356800  0.57716000  0.40645200  1
  H  402  1  0.12468600  0.56313700  0.38879200  1
  H  404  1  0.14862900  0.49174800  0.52935000  1
  H  405  1  0.15880800  0.54607500  0.50816300  1
  H  407  1  0.94190800  0.52350300  0.44615700  1
  H  408  1  0.92416300  0.48979800  0.48358100  1
  H  415  1  0.68024600  0.81376600  0.04430900  1
  H  419  1  0.52151700  0.82789900  0.98274900  1
  H  420  1  0.50478500  0.74801500  0.95843200  1
  H  421  1  0.56962900  0.73902800  0.94749400  1
  H  422  1  0.56726200  0.80784000  0.90758300  1
  H  423  1  0.50262800  0.81738900  0.91866600  1
  H  425  1  0.56635400  0.75513300  0.02322100  1
  H  426  1  0.61904700  0.74960600  0.04725400  1
  H  428  1  0.70494300  0.84754900  0.91314900  1
  H  429  1  0.74381500  0.87179700  0.94507200  1
  H  436  1  0.11463700  0.05684600  0.21241700  1
  H  440  1  0.01998900  0.05929100  0.32903500  1
  H  441  1  0.01215600  0.14512700  0.34102000  1
  H  442  1  0.07268800  0.15694500  0.32127500  1
  H  443  1  0.10917500  0.10545300  0.36611500  1
  H  444  1  0.04886500  0.09344400  0.38615900  1
  H  446  1  0.00765400  0.08125300  0.26243200  1
  H  447  1  0.04000500  0.13406900  0.25811200  1
  H  449  1  0.22043600  0.02992800  0.32119700  1
  H  450  1  0.23023500  0.99700700  0.28182100  1
  H  457  1  0.12256400  0.33832900  0.91873000  1
  H  461  1  0.21223300  0.33598300  0.03779300  1
  H  462  1  0.23248200  0.42078700  0.04432000  1
  H  463  1  0.17534100  0.43881400  0.02174800  1
  H  464  1  0.12959600  0.39945700  0.06877800  1
  H  465  1  0.18653600  0.38124500  0.09156500  1
  H  467  1  0.21282700  0.33802600  0.93408800  1
  H  468  1  0.22972100  0.36945700  0.97233500  1
  H  470  1  0.99620600  0.31548400  0.99176200  1
  H  471  1  0.02213400  0.25932900  0.99658300  1
  H  478  1  0.65070500  0.02388300  0.82143400  1
  H  482  1  0.67787600  0.01165200  0.68650500  1
  H  483  1  0.67542700  0.92488900  0.67768200  1
  H  484  1  0.62994100  0.91833300  0.71431600  1
  H  485  1  0.57457200  0.96882900  0.68082500  1
  H  486  1  0.61991900  0.97560200  0.64414900  1
  H  488  1  0.72693800  0.00745300  0.78133400  1
  H  489  1  0.71642400  0.97142000  0.74420400  1
  H  491  1  0.50203400  0.06695000  0.78164400  1
  H  492  1  0.53283100  0.12041700  0.77548000  1
  H  499  1  0.43562800  0.06265900  0.54276100  1
  H  503  1  0.56757900  0.94187600  0.56483000  1
  H  504  1  0.63771500  0.99290700  0.57520000  1
  H  505  1  0.61540600  0.03772300  0.54175200  1
  H  506  1  0.61867700  0.97745300  0.49490600  1
  H  507  1  0.64067200  0.93232000  0.52821000  1
  H  509  1  0.50924500  0.99998600  0.60307700  1
  H  510  1  0.54372600  0.04911900  0.58899500  1
  H  512  1  0.50728700  0.00883400  0.42404800  1
  H  513  1  0.44574300  0.01663200  0.42935200  1
  H  520  1  0.94017900  0.81313200  0.67955400  1
  H  524  1  0.08136900  0.92657900  0.67351100  1
  H  525  1  0.14982000  0.87197900  0.67013800  1
  H  526  1  0.11907700  0.82803400  0.70033600  1
  H  527  1  0.11633800  0.88751800  0.74782500  1
  H  528  1  0.14695100  0.93176800  0.71784900  1
  H  530  1  0.02839800  0.87102100  0.62853200  1
  H  531  1  0.05701300  0.82011900  0.64609300  1
  H  533  1  0.98771800  0.86296000  0.80523700  1
  H  534  1  0.92772500  0.86105600  0.79178400  1
  H  541  1  0.05310200  0.38512100  0.30192200  1
  H  545  1  0.90985800  0.32982900  0.22922400  1
  H  546  1  0.86301000  0.40357800  0.22329200  1
  H  547  1  0.91907300  0.44027600  0.22113900  1
  H  548  1  0.94328900  0.39770900  0.16719000  1
  H  549  1  0.88746100  0.36072300  0.16932600  1
  H  551  1  0.96559100  0.35697200  0.31929300  1
  H  552  1  0.92135400  0.37594500  0.28966900  1
  H  554  1  0.12014900  0.38745200  0.19033700  1
  H  555  1  0.12432300  0.32603600  0.19749800  1
  H  562  1  0.42572300  0.55901500  0.05077100  1
  H  566  1  0.57298500  0.45389400  0.05969900  1
  H  567  1  0.63782800  0.51254400  0.06435100  1
  H  568  1  0.60552600  0.55455900  0.03352800  1
  H  569  1  0.60801000  0.49506900  0.98604200  1
  H  570  1  0.64024500  0.45274000  0.01662800  1
  H  572  1  0.51499600  0.50630100  0.10358700  1
  H  573  1  0.54193900  0.55829300  0.08635700  1
  H  575  1  0.47955100  0.51270800  0.92625800  1
  H  576  1  0.41925300  0.50900300  0.93856900  1
  C  1  1  0.05199600  0.17127000  0.13142400  1
  C  2  1  0.05500000  0.15916400  0.16830200  1
  C  3  1  0.04950200  0.11105400  0.17925500  1
  C  4  1  0.05006200  0.07510500  0.15309000  1
  C  5  1  0.04838400  0.08568700  0.11627600  1
  C  6  1  0.04500600  0.13430200  0.10584900  1
  C  7  1  0.06101400  0.19618300  0.19317600  1
  C  8  1  0.03188300  0.14757000  0.07087300  1
  C  10  1  0.05174200  0.22027600  0.12066200  1
  C  11  1  0.06173200  0.25718600  0.14595300  1
  C  12  1  0.06465300  0.30555400  0.13430200  1
  C  13  1  0.04876500  0.31592600  0.09929500  1
  C  14  1  0.03492800  0.28083500  0.07466100  1
  C  15  1  0.03881600  0.23235200  0.08490800  1
  C  16  1  0.06629900  0.24351000  0.18209900  1
  C  18  1  0.02728100  0.19532000  0.06104600  1
  C  31  1  0.54782900  0.21599800  0.64302500  1
  C  32  1  0.57775400  0.24043400  0.66773400  1
  C  33  1  0.59783800  0.28510600  0.65819300  1
  C  34  1  0.58639600  0.30533900  0.62487600  1
  C  35  1  0.55631800  0.28236100  0.60030200  1
  C  36  1  0.53693500  0.23716200  0.60933400  1
  C  37  1  0.58675900  0.21885500  0.70109400  1
  C  38  1  0.50766100  0.21168800  0.58536600  1
  C  40  1  0.52993800  0.16972200  0.65164200  1
  C  41  1  0.53679900  0.15005900  0.68639800  1
  C  42  1  0.51648100  0.10510300  0.69508000  1
  C  43  1  0.49700900  0.07723900  0.66737700  1
  C  44  1  0.49171600  0.09530500  0.63252200  1
  C  45  1  0.50487100  0.14302100  0.62538600  1
  C  46  1  0.56507700  0.17580300  0.71077500  1
  C  48  1  0.49374100  0.16482400  0.59249400  1
  C  61  1  0.06251400  0.65267300  0.59350800  1
  C  62  1  0.09065100  0.62457800  0.56985300  1
  C  63  1  0.10703700  0.57907800  0.58081000  1
  C  64  1  0.09451000  0.56195500  0.61486400  1
  C  65  1  0.06644800  0.58872300  0.63861300  1
  C  66  1  0.05032200  0.63458600  0.62795000  1
  C  67  1  0.10191100  0.64330200  0.53597600  1
  C  68  1  0.02274200  0.66348200  0.65083000  1
  C  70  1  0.04733800  0.69917000  0.58285300  1
  C  71  1  0.05594500  0.71585100  0.54742700  1
  C  72  1  0.03744300  0.76067100  0.53637900  1
  C  73  1  0.01745100  0.79104800  0.56227700  1
  C  74  1  0.01047300  0.77595800  0.59776500  1
  C  75  1  0.02259100  0.72874200  0.60750400  1
  C  76  1  0.08315200  0.68688400  0.52443900  1
  C  78  1  0.01052000  0.71010700  0.64133700  1
  C  91  1  0.55272300  0.71647100  0.14640000  1
  C  92  1  0.54802100  0.73566500  0.11126400  1
  C  93  1  0.57130200  0.77902900  0.10216800  1
  C  94  1  0.59926900  0.80204900  0.12815800  1
  C  95  1  0.60316600  0.78451700  0.16325100  1
  C  96  1  0.57890700  0.74201100  0.17269800  1
  C  97  1  0.52034200  0.71020300  0.08627700  1
  C  98  1  0.58059400  0.72368800  0.20774000  1
  C  100  1  0.53212600  0.67139400  0.15523300  1
  C  101  1  0.50903800  0.64429900  0.12820500  1
  C  102  1  0.49287300  0.59762500  0.13584100  1
  C  103  1  0.49517600  0.58057300  0.17118300  1
  C  104  1  0.51320300  0.60867900  0.19930700  1
  C  105  1  0.53410900  0.65346000  0.19091200  1
  C  106  1  0.50256800  0.66484200  0.09413200  1
  C  108  1  0.55771300  0.68112500  0.21684700  1
  C  121  1  0.80185400  0.44722400  0.37266300  1
  C  122  1  0.77836000  0.45053700  0.33897700  1
  C  123  1  0.72786000  0.45294700  0.33749000  1
  C  124  1  0.70152900  0.44719900  0.36917800  1
  C  125  1  0.72391300  0.44101000  0.40248900  1
  C  126  1  0.77438400  0.44398100  0.40458300  1
  C  127  1  0.80631300  0.45112500  0.30768500  1
  C  128  1  0.79850100  0.44256500  0.43764900  1
  C  130  1  0.85271700  0.44597100  0.37440400  1
  C  131  1  0.88007600  0.44478200  0.34234700  1
  C  132  1  0.93043000  0.44010200  0.34413700  1
  C  133  1  0.95295900  0.44227700  0.37768000  1
  C  134  1  0.92683200  0.44565100  0.40967500  1
  C  135  1  0.87627100  0.44495300  0.40814800  1
  C  136  1  0.85597700  0.44788900  0.30935600  1
  C  138  1  0.84825400  0.44321600  0.43939000  1
  C  151  1  0.85226500  0.94354500  0.85834000  1
  C  152  1  0.87833900  0.93932800  0.82582700  1
  C  153  1  0.92893900  0.94015700  0.82643000  1
  C  154  1  0.95272400  0.94791600  0.85889300  1
  C  155  1  0.92767200  0.95340400  0.89110900  1
  C  156  1  0.87714300  0.94977000  0.89120300  1
  C  157  1  0.85290200  0.93361200  0.79358600  1
  C  158  1  0.85049600  0.95166000  0.92316000  1
  C  160  1  0.80143400  0.94068700  0.85801100  1
  C  161  1  0.77653400  0.93679700  0.82497000  1
  C  162  1  0.72595900  0.93671200  0.82463000  1
  C  163  1  0.70122700  0.93401800  0.85725800  1
  C  164  1  0.72526200  0.93379300  0.89026000  1
  C  165  1  0.77546600  0.94069800  0.89072500  1
  C  166  1  0.80312100  0.93309600  0.79312100  1
  C  168  1  0.80088200  0.94666300  0.92295200  1
  C  181  1  0.30161300  0.42163000  0.86974800  1
  C  182  1  0.27581900  0.42235300  0.90254400  1
  C  183  1  0.22536000  0.41888600  0.90216200  1
  C  184  1  0.20125700  0.42208600  0.86928600  1
  C  185  1  0.22596500  0.42558400  0.83668000  1
  C  186  1  0.27642200  0.42136000  0.83670400  1
  C  187  1  0.30143300  0.42699400  0.93475800  1
  C  188  1  0.30273200  0.41811000  0.80467400  1
  C  190  1  0.35250400  0.42231700  0.86995100  1
  C  191  1  0.37756500  0.42776300  0.90280900  1
  C  192  1  0.42807900  0.43111200  0.90271000  1
  C  193  1  0.45290100  0.42514700  0.87040000  1
  C  194  1  0.42893000  0.41810000  0.83781500  1
  C  195  1  0.37833400  0.41860500  0.83727000  1
  C  196  1  0.35111600  0.43060300  0.93483000  1
  C  198  1  0.35253300  0.41603900  0.80497000  1
  C  211  1  0.35660900  0.93412400  0.37385600  1
  C  212  1  0.38700400  0.93821000  0.40418500  1
  C  213  1  0.43717600  0.93558700  0.39982100  1
  C  214  1  0.45618600  0.92613800  0.36582600  1
  C  215  1  0.42678400  0.92088500  0.33566000  1
  C  216  1  0.37672800  0.92633700  0.33937000  1
  C  217  1  0.36627500  0.94568400  0.43807300  1
  C  218  1  0.34596400  0.92472500  0.30960200  1
  C  220  1  0.30623400  0.93888700  0.37797700  1
  C  221  1  0.28600000  0.94472700  0.41263200  1
  C  222  1  0.23573400  0.94697600  0.41676000  1
  C  223  1  0.20702900  0.94992000  0.38603100  1
  C  224  1  0.22656700  0.94756400  0.35144300  1
  C  225  1  0.27609800  0.93876200  0.34736200  1
  C  226  1  0.31687200  0.94833200  0.44224700  1
  C  228  1  0.29679300  0.93101700  0.31350100  1
  C  241  1  0.06261000  0.02707900  0.99229900  1
  C  242  1  0.04170200  0.03086000  0.02681800  1
  C  243  1  0.99130500  0.02783700  0.02799000  1
  C  245  1  0.98602700  0.01857000  0.96551400  1
  C  248  1  0.11457400  0.02933200  0.98582600  1
  C  249  1  0.13414300  0.05360600  0.95194300  1
  C  250  1  0.13803500  0.07880400  0.98806100  1
  C  256  1  0.07048600  0.03883500  0.05998200  1
  C  259  1  0.95600200  0.01244300  0.93364500  1
  C  262  1  0.58323900  0.33425900  0.47803200  1
  C  263  1  0.59648900  0.31505000  0.51176800  1
  C  264  1  0.64411000  0.32241600  0.52263100  1
  C  266  1  0.66274600  0.36113200  0.46812700  1
  C  269  1  0.53427300  0.33181200  0.46345100  1
  C  270  1  0.52548100  0.32927900  0.42286500  1
  C  271  1  0.51912100  0.28465500  0.44584200  1
  C  277  1  0.56582400  0.28337200  0.53379900  1
  C  280  1  0.69906600  0.37715900  0.44237000  1
  C  283  1  0.09266500  0.53828400  0.76107000  1
  C  284  1  0.10515600  0.55598300  0.72670400  1
  C  285  1  0.15133400  0.54477900  0.71427600  1
  C  287  1  0.17033200  0.50515200  0.76836600  1
  C  290  1  0.04507000  0.54474000  0.77739200  1
  C  291  1  0.03930500  0.54913200  0.81819500  1
  C  292  1  0.03459000  0.59340000  0.79461400  1
  C  298  1  0.07547200  0.58929300  0.70521700  1
  C  301  1  0.20707900  0.48715700  0.79305500  1
  C  304  1  0.57477200  0.84213600  0.26615800  1
  C  305  1  0.57604600  0.84702600  0.22831500  1
  C  306  1  0.53177000  0.85410500  0.21104500  1
  C  308  1  0.49067700  0.85508700  0.26614800  1
  C  311  1  0.61747400  0.83383200  0.28864400  1
  C  312  1  0.61262600  0.81410800  0.32694100  1
  C  313  1  0.63072800  0.78183400  0.29692200  1
  C  319  1  0.62047800  0.85123300  0.20660000  1
  C  322  1  0.44721000  0.86417700  0.28701500  1
  C  325  1  0.14448200  0.86713800  0.50576200  1
  C  326  1  0.17241900  0.87681200  0.47485100  1
  C  327  1  0.15875100  0.85329000  0.44312600  1
  C  329  1  0.09506900  0.81420700  0.47254400  1
  C  332  1  0.15496300  0.88646800  0.54166700  1
  C  333  1  0.11427500  0.90409600  0.56584800  1
  C  334  1  0.14660100  0.94015700  0.54710100  1
  C  340  1  0.21639000  0.90640300  0.47432500  1
  C  343  1  0.05449800  0.78131400  0.46912000  1
  C  346  1  0.63527700  0.53020400  0.24479400  1
  C  347  1  0.65641400  0.52477000  0.27911300  1
  C  348  1  0.62963900  0.54143700  0.30848000  1
  C  350  1  0.56716600  0.56745800  0.27058600  1
  C  353  1  0.65842100  0.51524200  0.21114100  1
  C  354  1  0.62933300  0.48967300  0.18203000  1
  C  355  1  0.66403400  0.46126400  0.20525200  1
  C  361  1  0.70462600  0.50490300  0.28618400  1
  C  364  1  0.51975100  0.58978400  0.26847700  1
  C  367  1  0.50283100  0.34174800  0.73362000  1
  C  368  1  0.50381400  0.35589800  0.77008900  1
  C  369  1  0.54927100  0.36225700  0.78551600  1
  C  371  1  0.58777000  0.33931000  0.73182100  1
  C  374  1  0.45868100  0.33205300  0.71339700  1
  C  375  1  0.45412800  0.34866900  0.67435200  1
  C  376  1  0.42758500  0.37539000  0.70391100  1
  C  382  1  0.46119300  0.36200800  0.79329500  1
  C  385  1  0.63340800  0.32828900  0.71404300  1
  C  388  1  0.07755100  0.53030800  0.47294400  1
  C  389  1  0.08645500  0.52331400  0.51006100  1
  C  390  1  0.04823300  0.50485300  0.53038400  1
  C  392  1  0.99764000  0.50306300  0.47975700  1
  C  395  1  0.11443800  0.54451200  0.44670400  1
  C  396  1  0.10107300  0.56948300  0.41144900  1
  C  397  1  0.12321800  0.59819800  0.44197500  1
  C  403  1  0.13473200  0.52784100  0.52649300  1
  C  406  1  0.95136100  0.49300100  0.46287900  1
  C  409  1  0.59978900  0.82236500  0.97846100  1
  C  410  1  0.61770200  0.80871200  0.01252000  1
  C  411  1  0.66468900  0.82305900  0.02063600  1
  C  413  1  0.67461500  0.85730800  0.96320400  1
  C  416  1  0.55030300  0.81273400  0.96678800  1
  C  417  1  0.53820200  0.80635600  0.92692000  1
  C  418  1  0.53950100  0.76295600  0.95164100  1
  C  424  1  0.59307600  0.77565500  0.03756700  1
  C  427  1  0.70741600  0.87346700  0.93488100  1
  C  430  1  0.08797800  0.06454000  0.29946700  1
  C  431  1  0.08086400  0.07156800  0.26215600  1
  C  432  1  0.11652400  0.05312900  0.23938700  1
  C  434  1  0.16103000  0.02413400  0.28859100  1
  C  437  1  0.05338800  0.07904100  0.32730700  1
  C  438  1  0.07086500  0.10064700  0.36275800  1
  C  439  1  0.04795600  0.13273100  0.33455000  1
  C  445  1  0.03807000  0.09743500  0.24882200  1
  C  448  1  0.20482700  0.00325900  0.30339600  1
  C  451  1  0.14683600  0.34786300  0.00612700  1
  C  452  1  0.15582200  0.35154900  0.96880700  1
  C  453  1  0.11861600  0.33720600  0.94585900  1
  C  455  1  0.06954300  0.31605800  0.99495600  1
  C  458  1  0.18220900  0.36011100  0.03388200  1
  C  459  1  0.16683800  0.38859400  0.06705900  1
  C  460  1  0.19548600  0.41308500  0.03754600  1
  C  466  1  0.20171600  0.36639300  0.95232700  1
  C  469  1  0.02358100  0.29576900  0.00634900  1
  C  472  1  0.63030100  0.01232500  0.73359100  1
  C  473  1  0.65517900  0.00579200  0.76633900  1
  C  474  1  0.63465400  0.02662600  0.79702600  1
  C  476  1  0.57077100  0.05820500  0.76317200  1
  C  479  1  0.64715300  0.99426300  0.69870900  1
  C  480  1  0.61170800  0.97136300  0.67245300  1
  C  481  1  0.64635600  0.93990100  0.69339200  1
  C  487  1  0.70193200  0.98153200  0.77016300  1
  C  490  1  0.52611500  0.08565400  0.76350600  1
  C  493  1  0.53048600  0.99252600  0.52912300  1
  C  494  1  0.49909100  0.02180300  0.54934900  1
  C  495  1  0.45973400  0.04090600  0.53057100  1
  C  497  1  0.48333400  0.00322900  0.47675300  1
  C  500  1  0.57310200  0.96915700  0.54447900  1
  C  501  1  0.61873400  0.96331600  0.52206800  1
  C  502  1  0.61668400  0.00109200  0.55147800  1
  C  508  1  0.50828400  0.03311200  0.58775900  1
  C  511  1  0.47611700  0.99516000  0.43810800  1
  C  514  1  0.03511100  0.87769800  0.70420500  1
  C  515  1  0.00661400  0.85014400  0.68050700  1
  C  516  1  0.96279000  0.83349800  0.69440700  1
  C  518  1  0.97705400  0.87018900  0.75029000  1
  C  521  1  0.08143900  0.89882500  0.69392700  1
  C  522  1  0.12246400  0.90192200  0.72114100  1
  C  523  1  0.12418500  0.86467200  0.69134100  1
  C  529  1  0.02269000  0.83813500  0.64354300  1
  C  532  1  0.96169300  0.87922900  0.78733400  1
  C  535  1  0.97984800  0.36561300  0.23278700  1
  C  536  1  0.99227300  0.37599900  0.26881800  1
  C  537  1  0.04144600  0.37806300  0.27661100  1
  C  539  1  0.06187600  0.36036400  0.21657400  1
  C  542  1  0.93030900  0.36047000  0.21992900  1
  C  543  1  0.91593400  0.37988200  0.18299400  1
  C  544  1  0.90077600  0.40645400  0.21680800  1
  C  550  1  0.95759000  0.38315600  0.29852500  1
  C  553  1  0.09976600  0.35423700  0.18959800  1
  C  556  1  0.52487300  0.49982000  0.02806300  1
  C  557  1  0.49411500  0.52584800  0.05114200  1
  C  558  1  0.44985700  0.53980300  0.03640300  1
  C  560  1  0.46787400  0.50338700  0.98091200  1
  C  563  1  0.57205600  0.48159100  0.03925200  1
  C  564  1  0.61411000  0.48103900  0.01284800  1
  C  565  1  0.61254100  0.51829600  0.04264100  1
  C  571  1  0.50835100  0.53884600  0.08836700  1
  C  574  1  0.45451300  0.49373100  0.94343500  1
  N  23  1  0.03995900  0.04757900  0.09186100  1
  N  25  1  0.00937900  0.29833200  0.04459200  1
  N  27  1  0.08351100  0.34673000  0.15217500  1
  N  29  1  0.02437800  0.09697200  0.21049900  1
  N  53  1  0.54946300  0.30671700  0.56736700  1
  N  55  1  0.47350400  0.06618900  0.60472500  1
  N  57  1  0.49974900  0.09164000  0.72948400  1
  N  59  1  0.63444400  0.30929500  0.67695300  1
  N  83  1  0.05700200  0.56657900  0.67203900  1
  N  85  1  0.98951500  0.80702900  0.62312100  1
  N  87  1  0.02408000  0.77222800  0.50079700  1
  N  89  1  0.14052200  0.55073700  0.56213800  1
  N  113  1  0.63531600  0.80838100  0.18636600  1
  N  115  1  0.49568800  0.59463500  0.23336100  1
  N  117  1  0.47354000  0.56878500  0.10826400  1
  N  119  1  0.57068900  0.80129800  0.06800400  1
  N  143  1  0.69355300  0.42774100  0.43125800  1
  N  145  1  0.95435400  0.44845500  0.44145400  1
  N  147  1  0.96064000  0.43182700  0.31427000  1
  N  149  1  0.70070700  0.45884800  0.30577000  1
  N  173  1  0.95636500  0.96217000  0.92150500  1
  N  175  1  0.69712700  0.92189200  0.92064700  1
  N  177  1  0.69766400  0.93828200  0.79317200  1
  N  179  1  0.95830200  0.93073300  0.79642700  1
  N  203  1  0.19798200  0.43800900  0.80636200  1
  N  205  1  0.45854200  0.41135900  0.80752600  1
  N  207  1  0.45592600  0.44243000  0.93326000  1
  N  209  1  0.19623600  0.41233000  0.93281100  1
  N  233  1  0.45104600  0.91234300  0.30311800  1
  N  235  1  0.19480400  0.95820200  0.32300500  1
  N  237  1  0.21172600  0.94864200  0.45022400  1
  N  239  1  0.47040100  0.94416800  0.42766400  1
  N  244  1  0.96531700  0.02222600  0.99797400  1
  N  246  1  0.03417600  0.02047400  0.96326800  1
  N  265  1  0.67572600  0.34374800  0.50050400  1
  N  267  1  0.61677600  0.35631700  0.45771700  1
  N  286  1  0.18255300  0.52121400  0.73543900  1
  N  288  1  0.12564300  0.51387200  0.78037800  1
  N  307  1  0.49095800  0.85837900  0.23004400  1
  N  309  1  0.53243200  0.84732800  0.28329500  1
  N  328  1  0.12113800  0.82326900  0.44284000  1
  N  330  1  0.10736400  0.83614200  0.50345200  1
  N  349  1  0.58662300  0.56197700  0.30348700  1
  N  351  1  0.59189500  0.55151600  0.24186000  1
  N  370  1  0.58921500  0.35374900  0.76637100  1
  N  372  1  0.54456500  0.33342900  0.71628900  1
  N  391  1  0.00537500  0.49585500  0.51511400  1
  N  393  1  0.03402800  0.51937100  0.45946900  1
  N  412  1  0.69180200  0.84536400  0.99585900  1
  N  414  1  0.62889100  0.84583400  0.95531600  1
  N  433  1  0.15530900  0.03083300  0.25297000  1
  N  435  1  0.12721000  0.04095300  0.31104900  1
  N  454  1  0.07749500  0.31981800  0.95932700  1
  N  456  1  0.10445700  0.32999700  0.01769400  1
  N  475  1  0.59374500  0.05178400  0.79464900  1
  N  477  1  0.58951300  0.03844400  0.73327300  1
  N  496  1  0.45316400  0.03148600  0.49544300  1
  N  498  1  0.52124600  0.98420800  0.49400100  1
  N  517  1  0.94950700  0.84364100  0.72827200  1
  N  519  1  0.01917100  0.88687700  0.73782600  1
  N  538  1  0.07430900  0.37045000  0.25076100  1
  N  540  1  0.01490900  0.35801500  0.20836300  1
  N  559  1  0.43823300  0.52854900  0.00235700  1
  N  561  1  0.51055500  0.48947800  0.99420800  1
