# generated using pymatgen
data_VH13C14N2O9
_symmetry_space_group_name_H-M   'P 1'
_cell_length_a   7.00680000
_cell_length_b   16.83985000
_cell_length_c   17.14674000
_cell_angle_alpha   79.11095000
_cell_angle_beta   89.99993000
_cell_angle_gamma   89.99992000
_symmetry_Int_Tables_number   1
_chemical_formula_structural   VH13C14N2O9
_chemical_formula_sum   'V4 H52 C56 N8 O36'
_cell_volume   1986.77508662
_cell_formula_units_Z   4
loop_
 _symmetry_equiv_pos_site_id
 _symmetry_equiv_pos_as_xyz
  1  'x, y, z'
loop_
 _atom_site_type_symbol
 _atom_site_label
 _atom_site_symmetry_multiplicity
 _atom_site_fract_x
 _atom_site_fract_y
 _atom_site_fract_z
 _atom_site_occupancy
  V  V0  1  0.06402000  0.49948000  0.50948000  1
  V  V1  1  0.56402000  0.50052000  0.49052000  1
  V  V2  1  0.70208000  0.00052000  0.99052000  1
  V  V3  1  0.20208000  0.99948000  0.00948000  1
  H  H4  1  0.13103000  0.16769000  0.35679000  1
  H  H5  1  0.63107000  0.83229000  0.64322000  1
  H  H6  1  0.59928000  0.83268000  0.20529000  1
  H  H7  1  0.09928000  0.16733000  0.79471000  1
  H  H8  1  0.56349000  0.71742000  0.29581000  1
  H  H9  1  0.06349000  0.28258000  0.70419000  1
  H  H10  1  0.67473000  0.76313000  0.36795000  1
  H  H11  1  0.17472000  0.23687000  0.63205000  1
  H  H12  1  0.01418000  0.72835000  0.12506000  1
  H  H13  1  0.51428000  0.27165000  0.87491000  1
  H  H14  1  0.74343000  0.62469000  0.22758000  1
  H  H15  1  0.24342000  0.37529000  0.77242000  1
  H  H16  1  0.20560000  0.77957000  0.21297000  1
  H  H17  1  0.70561000  0.22041000  0.78702000  1
  H  H18  1  0.18013000  0.69761000  0.33034000  1
  H  H19  1  0.68012000  0.30238000  0.66966000  1
  H  H20  1  0.13291000  0.04808000  0.20557000  1
  H  H21  1  0.26633000  0.11686000  0.25092000  1
  H  H22  1  0.06659000  0.05999000  0.30122000  1
  H  H23  1  0.63295000  0.95191000  0.79444000  1
  H  H24  1  0.76638000  0.88311000  0.74911000  1
  H  H25  1  0.56667000  0.93999000  0.69878000  1
  H  H26  1  0.08844000  0.91777000  0.29515000  1
  H  H27  1  0.31365000  0.86582000  0.30370000  1
  H  H28  1  0.24765000  0.92093000  0.21176000  1
  H  H29  1  0.58837000  0.08222000  0.70484000  1
  H  H30  1  0.81361000  0.13415000  0.69629000  1
  H  H31  1  0.74759000  0.07904000  0.78823000  1
  H  H32  1  0.01636000  0.72495000  0.45417000  1
  H  H33  1  0.19175000  0.79702000  0.41463000  1
  H  H34  1  0.94868000  0.82257000  0.39944000  1
  H  H35  1  0.51636000  0.27505000  0.54582000  1
  H  H36  1  0.69174000  0.20298000  0.58537000  1
  H  H37  1  0.44867000  0.17743000  0.60055000  1
  H  H38  1  0.18257000  0.62871000  0.22910000  1
  H  H39  1  0.03065000  0.54574000  0.27397000  1
  H  H40  1  0.03209000  0.57952000  0.16852000  1
  H  H41  1  0.68256000  0.37132000  0.77087000  1
  H  H42  1  0.53060000  0.45428000  0.72602000  1
  H  H43  1  0.53209000  0.42049000  0.83146000  1
  H  H44  1  0.80621000  0.23677000  0.98423000  1
  H  H45  1  0.56990000  0.20939000  0.02235000  1
  H  H46  1  0.65202000  0.31312000  0.00613000  1
  H  H47  1  0.30622000  0.76322000  0.01578000  1
  H  H48  1  0.06992000  0.79062000  0.97766000  1
  H  H49  1  0.15200000  0.68688000  0.99387000  1
  H  H50  1  0.43926000  0.32754000  0.20421000  1
  H  H51  1  0.53373000  0.38723000  0.11223000  1
  H  H52  1  0.41860000  0.29109000  0.11545000  1
  H  H53  1  0.93924000  0.67248000  0.79579000  1
  H  H54  1  0.03372000  0.61277000  0.88776000  1
  H  H55  1  0.91860000  0.70891000  0.88457000  1
  C  C56  1  0.34598000  0.38383000  0.61684000  1
  C  C57  1  0.84598000  0.61616000  0.38315000  1
  C  C58  1  0.34604000  0.60226000  0.58905000  1
  C  C59  1  0.84605000  0.39774000  0.41095000  1
  C  C60  1  0.90072000  0.16967000  0.13577000  1
  C  C61  1  0.40073000  0.83032000  0.86424000  1
  C  C62  1  0.86165000  0.33374000  0.36118000  1
  C  C63  1  0.36166000  0.66626000  0.63882000  1
  C  C64  1  0.02993000  0.21510000  0.33530000  1
  C  C65  1  0.52996000  0.78489000  0.66471000  1
  C  C66  1  0.98452000  0.26748000  0.38650000  1
  C  C67  1  0.48454000  0.73251000  0.61351000  1
  C  C68  1  0.77634000  0.34278000  0.28481000  1
  C  C69  1  0.27632000  0.65722000  0.71519000  1
  C  C70  1  0.80782000  0.28315000  0.23595000  1
  C  C71  1  0.30782000  0.71685000  0.76405000  1
  C  C72  1  0.94420000  0.22091000  0.26032000  1
  C  C73  1  0.44422000  0.77908000  0.73969000  1
  C  C74  1  0.98734000  0.16296000  0.21168000  1
  C  C75  1  0.48736000  0.83703000  0.78832000  1
  C  C76  1  0.76986000  0.23375000  0.11057000  1
  C  C77  1  0.26986000  0.76624000  0.88943000  1
  C  C78  1  0.70736000  0.28352000  0.16369000  1
  C  C79  1  0.20735000  0.71648000  0.83631000  1
  C  C80  1  0.72708000  0.82663000  0.24413000  1
  C  C81  1  0.22707000  0.17337000  0.75587000  1
  C  C82  1  0.69662000  0.74836000  0.30911000  1
  C  C83  1  0.19662000  0.25164000  0.69089000  1
  C  C84  1  0.09274000  0.80486000  0.24706000  1
  C  C85  1  0.59273000  0.19513000  0.75293000  1
  C  C86  1  0.88500000  0.73432000  0.16132000  1
  C  C87  1  0.38505000  0.26568000  0.83867000  1
  C  C88  1  0.90877000  0.81637000  0.19221000  1
  C  C89  1  0.40877000  0.18363000  0.80779000  1
  C  C90  1  0.86828000  0.68895000  0.31374000  1
  C  C91  1  0.36828000  0.31105000  0.68626000  1
  C  C92  1  0.05502000  0.73896000  0.32391000  1
  C  C93  1  0.55502000  0.26104000  0.67609000  1
  C  C94  1  0.87628000  0.65974000  0.23218000  1
  C  C95  1  0.37629000  0.34026000  0.76781000  1
  C  C96  1  0.42055000  0.89482000  0.91382000  1
  C  C97  1  0.92055000  0.10517000  0.08618000  1
  C  C98  1  0.42609000  0.11434000  0.88041000  1
  C  C99  1  0.92609000  0.88566000  0.11959000  1
  C  C100  1  0.12069000  0.09338000  0.24340000  1
  C  C101  1  0.62074000  0.90660000  0.75661000  1
  C  C102  1  0.18744000  0.88231000  0.26514000  1
  C  C103  1  0.68739000  0.11768000  0.73485000  1
  C  C104  1  0.05143000  0.77260000  0.40223000  1
  C  C105  1  0.55142000  0.22740000  0.59776000  1
  C  C106  1  0.04081000  0.60014000  0.22624000  1
  C  C107  1  0.54080000  0.39987000  0.77374000  1
  C  C108  1  0.69448000  0.24900000  0.02623000  1
  C  C109  1  0.19448000  0.75100000  0.97378000  1
  C  C110  1  0.51565000  0.32556000  0.14797000  1
  C  C111  1  0.01564000  0.67444000  0.85203000  1
  N  N112  1  0.71879000  0.73478000  0.10849000  1
  N  N113  1  0.21890000  0.26525000  0.89153000  1
  N  N114  1  0.06487000  0.25198000  0.46499000  1
  N  N115  1  0.56489000  0.74802000  0.53502000  1
  N  N116  1  0.68471000  0.41808000  0.25248000  1
  N  N117  1  0.18466000  0.58193000  0.74752000  1
  N  N118  1  0.73172000  0.90165000  0.27703000  1
  N  N119  1  0.23169000  0.09834000  0.72298000  1
  O  O120  1  0.50629000  0.57951000  0.56097000  1
  O  O121  1  0.00629000  0.42049000  0.43903000  1
  O  O122  1  0.17009000  0.41254000  0.59471000  1
  O  O123  1  0.67009000  0.58746000  0.40529000  1
  O  O124  1  0.17623000  0.57839000  0.57067000  1
  O  O125  1  0.67623000  0.42161000  0.42933000  1
  O  O126  1  0.01125000  0.58753000  0.41481000  1
  O  O127  1  0.51125000  0.41247000  0.58519000  1
  O  O128  1  0.34094000  0.50280000  0.44889000  1
  O  O129  1  0.84094000  0.49720000  0.55111000  1
  O  O130  1  0.26600000  0.08750000  0.91478000  1
  O  O131  1  0.76600000  0.91250000  0.08522000  1
  O  O132  1  0.58995000  0.92160000  0.92933000  1
  O  O133  1  0.08995000  0.07840000  0.07067000  1
  O  O134  1  0.59602000  0.08746000  0.90529000  1
  O  O135  1  0.09602000  0.91254000  0.09471000  1
  O  O136  1  0.76097000  0.07952000  0.06098000  1
  O  O137  1  0.26097000  0.92048000  0.93902000  1
  O  O138  1  0.42514000  0.99718000  0.05109000  1
  O  O139  1  0.92514000  0.00282000  0.94891000  1
  O  O140  1  0.54677000  0.72276000  0.13695000  1
  O  O141  1  0.74489000  0.73753000  0.03293000  1
  O  O142  1  0.04683000  0.27716000  0.86309000  1
  O  O143  1  0.24508000  0.26275000  0.96704000  1
  O  O144  1  0.96865000  0.26969000  0.52410000  1
  O  O145  1  0.22124000  0.21021000  0.47959000  1
  O  O146  1  0.46867000  0.73032000  0.47590000  1
  O  O147  1  0.72129000  0.78978000  0.52043000  1
  O  O148  1  0.52788000  0.43938000  0.28357000  1
  O  O149  1  0.75563000  0.46452000  0.18994000  1
  O  O150  1  0.02781000  0.56065000  0.71642000  1
  O  O151  1  0.25557000  0.53547000  0.81005000  1
  O  O152  1  0.66536000  0.90323000  0.34762000  1
  O  O153  1  0.75493000  0.97069000  0.22919000  1
  O  O154  1  0.16543000  0.09677000  0.65237000  1
  O  O155  1  0.25481000  0.02931000  0.77083000  1
