# generated using pymatgen
data_CuH4C6N5
_symmetry_space_group_name_H-M   'P 1'
_cell_length_a   4.42287954
_cell_length_b   10.89588653
_cell_length_c   16.27098434
_cell_angle_alpha   89.99999802
_cell_angle_beta   89.99999957
_cell_angle_gamma   96.91216096
_symmetry_Int_Tables_number   1
_chemical_formula_structural   CuH4C6N5
_chemical_formula_sum   'Cu4 H16 C24 N20'
_cell_volume   778.41904525
_cell_formula_units_Z   4
loop_
 _symmetry_equiv_pos_site_id
 _symmetry_equiv_pos_as_xyz
  1  'x, y, z'
loop_
 _atom_site_type_symbol
 _atom_site_label
 _atom_site_symmetry_multiplicity
 _atom_site_fract_x
 _atom_site_fract_y
 _atom_site_fract_z
 _atom_site_occupancy
  Cu  Cu1  1  0.29075988  0.42372216  0.42523215  1.0
  Cu  Cu2  1  0.20924016  0.07627784  0.92523216  1.0
  Cu  Cu3  1  0.70924014  0.57627785  0.57476782  1.0
  Cu  Cu4  1  0.79075984  0.92372213  0.07476786  1.0
  H  H1  1  0.72459886  0.25735215  0.42375165  1.0
  H  H2  1  0.37127879  0.15659183  0.31390853  1.0
  H  H3  1  0.00674067  0.31638915  0.13206721  1.0
  H  H4  1  0.33174204  0.41133763  0.24851283  1.0
  H  H5  1  0.77540113  0.24264785  0.92375163  1.0
  H  H6  1  0.12872120  0.34340816  0.81390853  1.0
  H  H7  1  0.49325933  0.18361085  0.63206722  1.0
  H  H8  1  0.16825802  0.08866239  0.74851284  1.0
  H  H9  1  0.27540113  0.74264786  0.57624836  1.0
  H  H10  1  0.62872118  0.84340816  0.68609147  1.0
  H  H11  1  0.99325934  0.68361085  0.86793278  1.0
  H  H12  1  0.66825803  0.58866240  0.75148716  1.0
  H  H13  1  0.22459886  0.75735214  0.07624835  1.0
  H  H14  1  0.87127880  0.65659183  0.18609147  1.0
  H  H15  1  0.50674068  0.81638916  0.36793278  1.0
  H  H16  1  0.83174203  0.91133762  0.25148717  1.0
  C  C1  1  0.77341033  0.26972129  0.35843288  1.0
  C  C2  1  0.57587376  0.21686372  0.29801014  1.0
  C  C3  1  0.66667316  0.22863105  0.21475051  1.0
  C  C4  1  0.94082204  0.29839185  0.19576549  1.0
  C  C5  1  0.12415155  0.34949060  0.25996522  1.0
  C  C6  1  0.46030792  0.17483858  0.15312725  1.0
  C  C7  1  0.72658975  0.23027872  0.85843288  1.0
  C  C8  1  0.92412620  0.28313627  0.79801013  1.0
  C  C9  1  0.83332685  0.27136895  0.71475051  1.0
  C  C10  1  0.55917796  0.20160813  0.69576552  1.0
  C  C11  1  0.37584844  0.15050941  0.75996520  1.0
  C  C12  1  0.03969201  0.32516140  0.65312724  1.0
  C  C13  1  0.22658980  0.73027874  0.64156713  1.0
  C  C14  1  0.42412622  0.78313627  0.70198985  1.0
  C  C15  1  0.33332687  0.77136894  0.78524950  1.0
  C  C16  1  0.05917791  0.70160813  0.80423448  1.0
  C  C17  1  0.87584846  0.65050942  0.74003483  1.0
  C  C18  1  0.53969203  0.82516139  0.84687277  1.0
  C  C19  1  0.27341033  0.76972128  0.14156713  1.0
  C  C20  1  0.07587377  0.71686373  0.20198985  1.0
  C  C21  1  0.16667316  0.72863106  0.28524950  1.0
  C  C22  1  0.44082205  0.79839186  0.30423450  1.0
  C  C23  1  0.62415152  0.84949059  0.24003478  1.0
  C  C24  1  0.96030797  0.67483860  0.34687275  1.0
  N  N1  1  0.04201388  0.33503439  0.33999810  1.0
  N  N2  1  0.48709459  0.19566550  0.07054152  1.0
  N  N3  1  0.24610736  0.12992066  0.03830197  1.0
  N  N4  1  0.07368334  0.06943874  0.09922011  1.0
  N  N5  1  0.20537705  0.09814663  0.17115908  1.0
  N  N6  1  0.45798578  0.16496553  0.83999821  1.0
  N  N7  1  0.01290537  0.30433449  0.57054154  1.0
  N  N8  1  0.25389259  0.37007929  0.53830209  1.0
  N  N9  1  0.42631683  0.43056134  0.59922007  1.0
  N  N10  1  0.29462295  0.40185338  0.67115907  1.0
  N  N11  1  0.95798600  0.66496560  0.66000185  1.0
  N  N12  1  0.51290548  0.80433452  0.92945844  1.0
  N  N13  1  0.75389252  0.87007925  0.96169786  1.0
  N  N14  1  0.92631681  0.93056135  0.90077992  1.0
  N  N15  1  0.79462289  0.90185334  0.82884098  1.0
  N  N16  1  0.54201382  0.83503435  0.16000192  1.0
  N  N17  1  0.98709463  0.69566551  0.42945846  1.0
  N  N18  1  0.74610741  0.62992070  0.46169799  1.0
  N  N19  1  0.57368341  0.56943876  0.40077988  1.0
  N  N20  1  0.70537712  0.59814667  0.32884095  1.0
