# generated using pymatgen
data_ZnH12C21N2O5
_symmetry_space_group_name_H-M   'P 1'
_cell_length_a   11.44934000
_cell_length_b   15.13688000
_cell_length_c   16.87408000
_cell_angle_alpha   89.94659000
_cell_angle_beta   97.16837000
_cell_angle_gamma   89.68413000
_symmetry_Int_Tables_number   1
_chemical_formula_structural   ZnH12C21N2O5
_chemical_formula_sum   'Zn4 H48 C84 N8 O20'
_cell_volume   2901.49516314
_cell_formula_units_Z   4
loop_
 _symmetry_equiv_pos_site_id
 _symmetry_equiv_pos_as_xyz
  1  'x, y, z'
loop_
 _atom_site_type_symbol
 _atom_site_label
 _atom_site_symmetry_multiplicity
 _atom_site_fract_x
 _atom_site_fract_y
 _atom_site_fract_z
 _atom_site_occupancy
  Zn  Zn0  1  0.97452000  0.36804000  0.46550000  1
  Zn  Zn1  1  0.02613000  0.86813000  0.03463000  1
  Zn  Zn2  1  0.02548000  0.63196000  0.53449000  1
  Zn  Zn3  1  0.97387000  0.13187000  0.96537000  1
  H  H4  1  0.00715000  0.70009000  0.28228000  1
  H  H5  1  0.24373000  0.93020000  0.14545000  1
  H  H6  1  0.61983000  0.16161000  0.73276000  1
  H  H7  1  0.39803000  0.23467000  0.04906000  1
  H  H8  1  0.75639000  0.43079000  0.35492000  1
  H  H9  1  0.83372000  0.98835000  0.11073000  1
  H  H10  1  0.02305000  0.06626000  0.44563000  1
  H  H11  1  0.53879000  0.06100000  0.85278000  1
  H  H12  1  0.41846000  0.79928000  0.92155000  1
  H  H13  1  0.16532000  0.48743000  0.38862000  1
  H  H14  1  0.58154000  0.20072000  0.07845000  1
  H  H15  1  0.59940000  0.73567000  0.45112000  1
  H  H16  1  0.20509000  0.79120000  0.93286000  1
  H  H17  1  0.60197000  0.76533000  0.95094000  1
  H  H18  1  0.81962000  0.77699000  0.95487000  1
  H  H19  1  0.79491000  0.20880000  0.06713000  1
  H  H20  1  0.40060000  0.26434000  0.54888000  1
  H  H21  1  0.18253000  0.27483000  0.54375000  1
  H  H22  1  0.06200000  0.58013000  0.73162000  1
  H  H23  1  0.46121000  0.93900000  0.14721000  1
  H  H24  1  0.18038000  0.22301000  0.04513000  1
  H  H25  1  0.99402000  0.20102000  0.21913000  1
  H  H26  1  0.96885000  0.57069000  0.05359000  1
  H  H27  1  0.24361000  0.56921000  0.64508000  1
  H  H28  1  0.75627000  0.06981000  0.85455000  1
  H  H29  1  0.97695000  0.93374000  0.55437000  1
  H  H30  1  0.16629000  0.01165000  0.88927000  1
  H  H31  1  0.38079000  0.48917000  0.38909000  1
  H  H32  1  0.46111000  0.56055000  0.64699000  1
  H  H33  1  0.83468000  0.51257000  0.61138000  1
  H  H34  1  0.05443000  0.91909000  0.22922000  1
  H  H35  1  0.99286000  0.29991000  0.71771000  1
  H  H36  1  0.58365000  0.29976000  0.57914000  1
  H  H37  1  0.00598000  0.79899000  0.78087000  1
  H  H38  1  0.61921000  0.51083000  0.61091000  1
  H  H39  1  0.53889000  0.43946000  0.35301000  1
  H  H40  1  0.79741000  0.29191000  0.56792000  1
  H  H41  1  0.62084000  0.33283000  0.23904000  1
  H  H42  1  0.03115000  0.42931000  0.94641000  1
  H  H43  1  0.37916000  0.66719000  0.76096000  1
  H  H44  1  0.81747000  0.72517000  0.45624000  1
  H  H45  1  0.38016000  0.83838000  0.26724000  1
  H  H46  1  0.20259000  0.70809000  0.43208000  1
  H  H47  1  0.41635000  0.70024000  0.42085000  1
  H  H48  1  0.93800000  0.41987000  0.26838000  1
  H  H49  1  0.94557000  0.08091000  0.77077000  1
  H  H50  1  0.61831000  0.98915000  0.11119000  1
  H  H51  1  0.38169000  0.01086000  0.88881000  1
  C  C52  1  0.77968000  0.56066000  0.57616000  1
  C  C53  1  0.98791000  0.64460000  0.16379000  1
  C  C54  1  0.03179000  0.43247000  0.88201000  1
  C  C55  1  0.71275000  0.09814000  0.90241000  1
  C  C56  1  0.28669000  0.59759000  0.59715000  1
  C  C57  1  0.68633000  0.33094000  0.19914000  1
  C  C58  1  0.61434000  0.17108000  0.02678000  1
  C  C59  1  0.61604000  0.32937000  0.52740000  1
  C  C60  1  0.05119000  0.51697000  0.76085000  1
  C  C61  1  0.95762000  0.01358000  0.65867000  1
  C  C62  1  0.77058000  0.82258000  0.98829000  1
  C  C63  1  0.01209000  0.35541000  0.83621000  1
  C  C64  1  0.41054000  0.12403000  0.96826000  1
  C  C65  1  0.59210000  0.40747000  0.40292000  1
  C  C66  1  0.41141000  0.37561000  0.46835000  1
  C  C67  1  0.02710000  0.06040000  0.21508000  1
  C  C68  1  0.65831000  0.56088000  0.57642000  1
  C  C69  1  0.03047000  0.43947000  0.71555000  1
  C  C70  1  0.64725000  0.68402000  0.48663000  1
  C  C71  1  0.22703000  0.64568000  0.83294000  1
  C  C72  1  0.71331000  0.40242000  0.40285000  1
  C  C73  1  0.73677000  0.32613000  0.52287000  1
  C  C74  1  0.58946000  0.87597000  0.03174000  1
  C  C75  1  0.35275000  0.31598000  0.51336000  1
  C  C76  1  0.99158000  0.23035000  0.37614000  1
  C  C77  1  0.46082000  0.87068000  0.03374000  1
  C  C78  1  0.00873000  0.14311000  0.33645000  1
  C  C79  1  0.34187000  0.06048000  0.92362000  1
  C  C80  1  0.94858000  0.48905000  0.15697000  1
  C  C81  1  0.31140000  0.83440000  0.30446000  1
  C  C82  1  0.94880000  0.48303000  0.23915000  1
  C  C83  1  0.58859000  0.62440000  0.53165000  1
  C  C84  1  0.00760000  0.73116000  0.12411000  1
  C  C85  1  0.02676000  0.44332000  0.62618000  1
  C  C86  1  0.31366000  0.66907000  0.80086000  1
  C  C87  1  0.95564000  0.01819000  0.74066000  1
  C  C88  1  0.40790000  0.59253000  0.59708000  1
  C  C89  1  0.73502000  0.17442000  0.02219000  1
  C  C90  1  0.28725000  0.90187000  0.09758000  1
  C  C91  1  0.38396000  0.67064000  0.47260000  1
  C  C92  1  0.97433000  0.94295000  0.87399000  1
  C  C93  1  0.13352000  0.84603000  0.38343000  1
  C  C94  1  0.26498000  0.82558000  0.97780000  1
  C  C95  1  0.54020000  0.37090000  0.46664000  1
  C  C96  1  0.38566000  0.82892000  0.97322000  1
  C  C97  1  0.53918000  0.12932000  0.96626000  1
  C  C98  1  0.97324000  0.55668000  0.37382000  1
  C  C99  1  0.22032000  0.43935000  0.42384000  1
  C  C100  1  0.00842000  0.76966000  0.62386000  1
  C  C101  1  0.99240000  0.26885000  0.87588000  1
  C  C102  1  0.02567000  0.05705000  0.12601000  1
  C  C103  1  0.23096000  0.32103000  0.51085000  1
  C  C104  1  0.34169000  0.43913000  0.42358000  1
  C  C105  1  0.04238000  0.98642000  0.34133000  1
  C  C106  1  0.77298000  0.35433000  0.16705000  1
  C  C107  1  0.76905000  0.67898000  0.48915000  1
  C  C108  1  0.99126000  0.85689000  0.66355000  1
  C  C109  1  0.02470000  0.06474000  0.38128000  1
  C  C110  1  0.77941000  0.94026000  0.07566000  1
  C  C111  1  0.68859000  0.16560000  0.69553000  1
  C  C112  1  0.05142000  0.51096000  0.84303000  1
  C  C113  1  0.22059000  0.05974000  0.92434000  1
  C  C114  1  0.01058000  0.35940000  0.75322000  1
  C  C115  1  0.04436000  0.98182000  0.25934000  1
  C  C116  1  0.35100000  0.18304000  0.01368000  1
  C  C117  1  0.86649000  0.15397000  0.61656000  1
  C  C118  1  0.77839000  0.14535000  0.66539000  1
  C  C119  1  0.98942000  0.64060000  0.24678000  1
  C  C120  1  0.96953000  0.56053000  0.28445000  1
  C  C121  1  0.97530000  0.93527000  0.61872000  1
  C  C122  1  0.14316000  0.65074000  0.88520000  1
  C  C123  1  0.85684000  0.34926000  0.11480000  1
  C  C124  1  0.96821000  0.56753000  0.11798000  1
  C  C125  1  0.64900000  0.81696000  0.98632000  1
  C  C126  1  0.99137000  0.85971000  0.74647000  1
  C  C127  1  0.22943000  0.17742000  0.01171000  1
  C  C128  1  0.40838000  0.90704000  0.09744000  1
  C  C129  1  0.26323000  0.67387000  0.47713000  1
  C  C130  1  0.97290000  0.93960000  0.78492000  1
  C  C131  1  0.59162000  0.09297000  0.90256000  1
  C  C132  1  0.65813000  0.93952000  0.07638000  1
  C  C133  1  0.00863000  0.14030000  0.25353000  1
  C  C134  1  0.45980000  0.62910000  0.53336000  1
  C  C135  1  0.22160000  0.85465000  0.33460000  1
  N  N136  1  0.78508000  0.36288000  0.46189000  1
  N  N137  1  0.83563000  0.88277000  0.03278000  1
  N  N138  1  0.83508000  0.61867000  0.53363000  1
  N  N139  1  0.21492000  0.63713000  0.53811000  1
  N  N140  1  0.16492000  0.38133000  0.46637000  1
  N  N141  1  0.21602000  0.86239000  0.03862000  1
  N  N142  1  0.78398000  0.13761000  0.96138000  1
  N  N143  1  0.16437000  0.11724000  0.96722000  1
  O  O144  1  0.97116000  0.20060000  0.83353000  1
  O  O145  1  0.99936000  0.26797000  0.95256000  1
  O  O146  1  0.01128000  0.62528000  0.41258000  1
  O  O147  1  0.99952000  0.23176000  0.45282000  1
  O  O148  1  0.97124000  0.29885000  0.33354000  1
  O  O149  1  0.00064000  0.73203000  0.04744000  1
  O  O150  1  0.93823000  0.48678000  0.40473000  1
  O  O151  1  0.94749000  0.09320000  0.61098000  1
  O  O152  1  0.93499000  0.41098000  0.10759000  1
  O  O153  1  0.93850000  0.01289000  0.90479000  1
  O  O154  1  0.06501000  0.58902000  0.89241000  1
  O  O155  1  0.02876000  0.70115000  0.66645000  1
  O  O156  1  0.05252000  0.90680000  0.38902000  1
  O  O157  1  0.06150000  0.98712000  0.09521000  1
  O  O158  1  0.98828000  0.12617000  0.08722000  1
  O  O159  1  0.01172000  0.87383000  0.91278000  1
  O  O160  1  0.98872000  0.37472000  0.58742000  1
  O  O161  1  0.06176000  0.51323000  0.59527000  1
  O  O162  1  0.02884000  0.79940000  0.16646000  1
  O  O163  1  0.00048000  0.76825000  0.54718000  1
