# generated using pymatgen
data_Zn3H24C30S2(N3O4)2
_symmetry_space_group_name_H-M   'P 1'
_cell_length_a   10.14701000
_cell_length_b   10.18686045
_cell_length_c   11.30724000
_cell_angle_alpha   92.39515441
_cell_angle_beta   114.54985000
_cell_angle_gamma   112.26717117
_symmetry_Int_Tables_number   1
_chemical_formula_structural   Zn3H24C30S2(N3O4)2
_chemical_formula_sum   'Zn3 H24 C30 S2 N6 O8'
_cell_volume   955.89413285
_cell_formula_units_Z   1
loop_
 _symmetry_equiv_pos_site_id
 _symmetry_equiv_pos_as_xyz
  1  'x, y, z'
loop_
 _atom_site_type_symbol
 _atom_site_label
 _atom_site_symmetry_multiplicity
 _atom_site_fract_x
 _atom_site_fract_y
 _atom_site_fract_z
 _atom_site_occupancy
  Zn  Zn0  1  0.99846000  0.01814000  0.99941000  1
  Zn  Zn1  1  0.93842000  0.24744000  0.10055000  1
  Zn  Zn2  1  0.50432000  0.49638000  0.00641000  1
  H  H3  1  0.36188000  0.11194000  0.13071000  1
  H  H4  1  0.58519000  0.18151000  0.36015000  1
  H  H5  1  0.23494000  0.10687000  0.50513000  1
  H  H6  1  0.02613000  0.03031000  0.27075000  1
  H  H7  1  0.76129000  0.25063000  0.55085000  1
  H  H8  1  0.02740000  0.67705000  0.20540000  1
  H  H9  1  0.36714000  0.76522000  0.06971000  1
  H  H10  1  0.58916000  0.84711000  0.29479000  1
  H  H11  1  0.25791000  0.42984000  0.71909000  1
  H  H12  1  0.24512000  0.42943000  0.49538000  1
  H  H13  1  0.76414000  0.59252000  0.69423000  1
  H  H14  1  0.75362000  0.59115000  0.90848000  1
  H  H15  1  0.63669000  0.90197000  0.85952000  1
  H  H16  1  0.41381000  0.82436000  0.63047000  1
  H  H17  1  0.76338000  0.90006000  0.48525000  1
  H  H18  1  0.97370000  0.98647000  0.72040000  1
  H  H19  1  0.23686000  0.75116000  0.44136000  1
  H  H20  1  0.96767000  0.32286000  0.78966000  1
  H  H21  1  0.62032000  0.23962000  0.91680000  1
  H  H22  1  0.40307000  0.16214000  0.69056000  1
  H  H23  1  0.74718000  0.59381000  0.29328000  1
  H  H24  1  0.76217000  0.60192000  0.51786000  1
  H  H25  1  0.24070000  0.40831000  0.31837000  1
  H  H26  1  0.25038000  0.40675000  0.10417000  1
  C  C27  1  0.33989000  0.10982000  0.21703000  1
  C  C28  1  0.46402000  0.15050000  0.34675000  1
  C  C29  1  0.43224000  0.15226000  0.45619000  1
  C  C30  1  0.27072000  0.10891000  0.42667000  1
  C  C31  1  0.15218000  0.06773000  0.29484000  1
  C  C32  1  0.56091000  0.19859000  0.59627000  1
  C  C33  1  0.72400000  0.24701000  0.62845000  1
  C  C34  1  0.84083000  0.28897000  0.76203000  1
  C  C35  1  0.34059000  0.76411000  0.15381000  1
  C  C36  1  0.46797000  0.81075000  0.28363000  1
  C  C37  1  0.36649000  0.46665000  0.70768000  1
  C  C38  1  0.36145000  0.46609000  0.58310000  1
  C  C39  1  0.50429000  0.50996000  0.57262000  1
  C  C40  1  0.64794000  0.55674000  0.69264000  1
  C  C41  1  0.64416000  0.55524000  0.81393000  1
  C  C42  1  0.65994000  0.90364000  0.77367000  1
  C  C43  1  0.53516000  0.85770000  0.64372000  1
  C  C44  1  0.56576000  0.85499000  0.53330000  1
  C  C45  1  0.72780000  0.90014000  0.56375000  1
  C  C46  1  0.84754000  0.94719000  0.69599000  1
  C  C47  1  0.43556000  0.80729000  0.39313000  1
  C  C48  1  0.27279000  0.75654000  0.36283000  1
  C  C49  1  0.15369000  0.71374000  0.22978000  1
  C  C50  1  0.64877000  0.24111000  0.83364000  1
  C  C51  1  0.52463000  0.19610000  0.70333000  1
  C  C52  1  0.63886000  0.55224000  0.30508000  1
  C  C53  1  0.64490000  0.55639000  0.43011000  1
  C  C54  1  0.50209000  0.50561000  0.44096000  1
  C  C55  1  0.35783000  0.45104000  0.32068000  1
  C  C56  1  0.36067000  0.44946000  0.19904000  1
  S  S57  1  0.74288000  0.78279000  0.11007000  1
  S  S58  1  0.26247000  0.21460000  0.88385000  1
  N  N59  1  0.18560000  0.06881000  0.19094000  1
  N  N60  1  0.80443000  0.28693000  0.86390000  1
  N  N61  1  0.50520000  0.50916000  0.82172000  1
  N  N62  1  0.81549000  0.94978000  0.80079000  1
  N  N63  1  0.18489000  0.71636000  0.12482000  1
  N  N64  1  0.49897000  0.49981000  0.19035000  1
  O  O65  1  0.83907000  0.86445000  0.04200000  1
  O  O66  1  0.56768000  0.74493000  0.02401000  1
  O  O67  1  0.75579000  0.63734000  0.11267000  1
  O  O68  1  0.80715000  0.86677000  0.24704000  1
  O  O69  1  0.16770000  0.09938000  0.93495000  1
  O  O70  1  0.44080000  0.26263000  0.97536000  1
  O  O71  1  0.23557000  0.35042000  0.89855000  1
  O  O72  1  0.21332000  0.15376000  0.74327000  1
