# generated using pymatgen
data_CoH9C13O4
_symmetry_space_group_name_H-M   'P 1'
_cell_length_a   10.58790156
_cell_length_b   15.12012395
_cell_length_c   16.79035467
_cell_angle_alpha   116.76096503
_cell_angle_beta   108.35328726
_cell_angle_gamma   89.99967860
_symmetry_Int_Tables_number   1
_chemical_formula_structural   CoH9C13O4
_chemical_formula_sum   'Co4 H36 C52 O16'
_cell_volume   2245.88684704
_cell_formula_units_Z   4
loop_
 _symmetry_equiv_pos_site_id
 _symmetry_equiv_pos_as_xyz
  1  'x, y, z'
loop_
 _atom_site_type_symbol
 _atom_site_label
 _atom_site_symmetry_multiplicity
 _atom_site_fract_x
 _atom_site_fract_y
 _atom_site_fract_z
 _atom_site_occupancy
  C  C1  1  0.10964105  0.24167210  0.35610413  1.0
  C  C2  1  0.06717820  0.33781362  0.40903847  1.0
  C  C3  1  0.05698400  0.19036615  0.25629014  1.0
  C  C4  1  0.93064494  0.97793147  0.05025650  1.0
  C  C5  1  0.85835887  0.95291354  0.10369968  1.0
  C  C11  1  0.75356796  0.25830076  0.64386801  1.0
  C  C12  1  0.65816944  0.16218376  0.59093642  1.0
  C  C13  1  0.80087070  0.30954751  0.74369599  1.0
  C  C14  1  0.88039981  0.52205057  0.94979145  1.0
  C  C15  1  0.75455382  0.54697040  0.89644287  1.0
  C  C21  1  0.89034411  0.38556752  0.64389135  1.0
  C  C22  1  0.93279669  0.42877861  0.59095865  1.0
  C  C23  1  0.94301317  0.43407048  0.74370533  1.0
  C  C24  1  0.06935827  0.42766800  0.94974458  1.0
  C  C25  1  0.14165122  0.34920991  0.89630350  1.0
  C  C31  1  0.24643613  0.11443381  0.35613029  1.0
  C  C32  1  0.34184882  0.07125214  0.40906054  1.0
  C  C33  1  0.19912482  0.06584887  0.25630242  1.0
  C  C34  1  0.11960258  0.07226694  0.05021032  1.0
  C  C35  1  0.24545411  0.15053131  0.10356194  1.0
  C  C41  1  0.89034669  0.75832599  0.64389250  1.0
  C  C42  1  0.93280009  0.66218218  0.59095903  1.0
  C  C43  1  0.94301386  0.80963633  0.74370634  1.0
  C  C44  1  0.06935820  0.02207777  0.94974528  1.0
  C  C45  1  0.14165045  0.04709436  0.89630465  1.0
  C  C51  1  0.24643269  0.74169606  0.35613220  1.0
  C  C52  1  0.34184517  0.83780831  0.40906255  1.0
  C  C53  1  0.19912139  0.69045322  0.25630450  1.0
  C  C54  1  0.11960110  0.47794346  0.05020982  1.0
  C  C55  1  0.24545198  0.45302969  0.10356109  1.0
  C  C61  1  0.10964017  0.61442940  0.35610393  1.0
  C  C62  1  0.06717956  0.57122046  0.40903738  1.0
  C  C63  1  0.05698105  0.56592322  0.25628992  1.0
  C  C64  1  0.93064243  0.57232578  0.05025619  1.0
  C  C65  1  0.85835559  0.65078799  0.10369943  1.0
  C  C71  1  0.75356712  0.88556859  0.64387021  1.0
  C  C72  1  0.65816688  0.92875274  0.59093827  1.0
  C  C73  1  0.80086961  0.93415079  0.74369823  1.0
  C  C74  1  0.88040084  0.92774252  0.94979191  1.0
  C  C75  1  0.75455452  0.84947463  0.89644372  1.0
  C  C81  1  0.20330200  0.20330450  0.40649172  1.0
  C  C82  1  0.10273639  0.10275124  0.20557526  1.0
  C  C83  1  0.04964437  0.04962098  0.09929074  1.0
  C  C87  1  0.79668898  0.29680889  0.59350398  1.0
  C  C88  1  0.89726690  0.39717500  0.79442402  1.0
  C  C89  1  0.95036002  0.45032515  0.90070963  1.0
  C  C93  1  0.79669064  0.79669705  0.59350589  1.0
  C  C94  1  0.89726635  0.89725067  0.79442526  1.0
  C  C95  1  0.95035990  0.95038609  0.90071051  1.0
  C  C99  1  0.20330059  0.70318561  0.40649293  1.0
  C  C100  1  0.10273253  0.60282361  0.20557564  1.0
  C  C101  1  0.04964142  0.54966982  0.09929082  1.0
  Co  Co1  1  0.89604279  0.47189283  0.44378618  1.0
  Co  Co3  1  0.45267893  0.02791899  0.55583677  1.0
  Co  Co5  1  0.10393099  0.52810482  0.55620962  1.0
  Co  Co7  1  0.54733581  0.97207661  0.44415651  1.0
  H  H1  1  0.98113468  0.21997497  0.21821113  1.0
  H  H2  1  0.87259665  0.87830295  0.09792225  1.0
  H  H3  1  0.74895492  0.95026803  0.07482245  1.0
  H  H4  1  0.89461109  0.00749121  0.17963731  1.0
  H  H9  1  0.76327424  0.27987038  0.78181630  1.0
  H  H10  1  0.77431480  0.62157050  0.90214038  1.0
  H  H11  1  0.67419235  0.54958268  0.92549481  1.0
  H  H12  1  0.71479991  0.49233924  0.82052204  1.0
  H  H17  1  0.01887171  0.50175339  0.78177667  1.0
  H  H18  1  0.12742088  0.28037558  0.90208014  1.0
  H  H19  1  0.25105403  0.37544740  0.92518447  1.0
  H  H20  1  0.10540207  0.32784957  0.82036606  1.0
  H  H25  1  0.23671060  0.99804343  0.21818142  1.0
  H  H26  1  0.22570510  0.21943791  0.09786948  1.0
  H  H27  1  0.32581483  0.12408666  0.07451040  1.0
  H  H28  1  0.28520535  0.17181740  0.17948187  1.0
  H  H33  1  0.01887204  0.78002435  0.78177780  1.0
  H  H34  1  0.12741880  0.12170544  0.90208162  1.0
  H  H35  1  0.25105320  0.04973818  0.92518642  1.0
  H  H36  1  0.10540207  0.99251642  0.82036728  1.0
  H  H41  1  0.23670825  0.72013764  0.21818438  1.0
  H  H42  1  0.22570258  0.37842998  0.09786717  1.0
  H  H43  1  0.32581390  0.45042265  0.07451077  1.0
  H  H44  1  0.28520232  0.50766319  0.17948143  1.0
  H  H49  1  0.98113028  0.49823599  0.21821011  1.0
  H  H50  1  0.87259285  0.71962126  0.09792234  1.0
  H  H51  1  0.74895157  0.62455702  0.07482253  1.0
  H  H52  1  0.89460787  0.67214892  0.17963713  1.0
  H  H57  1  0.76327294  0.00194861  0.78181879  1.0
  H  H58  1  0.77431575  0.78057178  0.90214077  1.0
  H  H59  1  0.67419440  0.87591589  0.92549703  1.0
  H  H60  1  0.71479914  0.82818472  0.82052309  1.0
  H  H65  1  0.24220861  0.24220921  0.48407432  1.0
  H  H67  1  0.75777803  0.25812658  0.51592127  1.0
  H  H69  1  0.75778068  0.75779672  0.51592321  1.0
  H  H71  1  0.24220782  0.74186266  0.48407541  1.0
  O  O1  1  0.94596692  0.34891512  0.37288688  1.0
  O  O2  1  0.15491535  0.40410811  0.48755215  1.0
  O  O5  1  0.57310945  0.15094892  0.62704629  1.0
  O  O6  1  0.66714564  0.09580073  0.51233575  1.0
  O  O9  1  0.05400434  0.47603170  0.62710986  1.0
  O  O10  1  0.84505534  0.41656081  0.51244559  1.0
  O  O13  1  0.42690875  0.02390559  0.37294819  1.0
  O  O14  1  0.33287794  0.08346898  0.48766099  1.0
  O  O17  1  0.05400830  0.65107987  0.62710974  1.0
  O  O18  1  0.84505873  0.59588679  0.51244554  1.0
  O  O21  1  0.42690690  0.84903969  0.37295064  1.0
  O  O22  1  0.33287324  0.90419466  0.48766185  1.0
  O  O25  1  0.94596893  0.52396714  0.37288587  1.0
  O  O26  1  0.15491763  0.58343907  0.48755034  1.0
  O  O29  1  0.57310452  0.97609664  0.62704672  1.0
  O  O30  1  0.66714502  0.91653473  0.51233841  1.0
