# generated using pymatgen
data_H7C16(NO)4
_symmetry_space_group_name_H-M   'P 1'
_cell_length_a   21.00130000
_cell_length_b   21.00130000
_cell_length_c   35.65410000
_cell_angle_alpha   90.00000000
_cell_angle_beta   90.00000000
_cell_angle_gamma   120.00000000
_symmetry_Int_Tables_number   1
_chemical_formula_structural   H7C16(NO)4
_chemical_formula_sum   'H42 C96 N24 O24'
_cell_volume   13618.60010578
_cell_formula_units_Z   6
loop_
 _symmetry_equiv_pos_site_id
 _symmetry_equiv_pos_as_xyz
  1  'x, y, z'
loop_
 _atom_site_type_symbol
 _atom_site_label
 _atom_site_symmetry_multiplicity
 _atom_site_fract_x
 _atom_site_fract_y
 _atom_site_fract_z
 _atom_site_occupancy
  C  1  1  0.41192800  0.46509200  0.01998600  1
  C  2  1  0.37189800  0.49951000  0.03279800  1
  C  3  1  0.35350850  0.49656450  0.07162100  1
  C  4  1  0.38758600  0.47153600  0.09716700  1
  C  5  1  0.43526450  0.44557750  0.08615200  1
  C  6  1  0.44154450  0.43615050  0.04686900  1
  C  7  1  0.35046850  0.53439250  0.00568500  1
  C  8  1  0.47340950  0.39539450  0.03305000  1
  C  10  1  0.42033550  0.45792550  0.98038700  1
  C  11  1  0.39851600  0.49435800  0.95361300  1
  C  12  1  0.40744500  0.48777700  0.91434200  1
  C  13  1  0.42997500  0.43732900  0.90328100  1
  C  14  1  0.44845150  0.39716050  0.92845600  1
  C  15  1  0.44839800  0.41212600  0.96752200  1
  C  16  1  0.36500350  0.53348850  0.96747400  1
  C  18  1  0.47516600  0.38232200  0.99471700  1
  C  23  1  0.47262450  0.43276950  0.11589400  1
  C  24  1  0.46187450  0.34211350  0.91346200  1
  C  25  1  0.39442700  0.52445800  0.88427100  1
  C  26  1  0.30076000  0.51411600  0.08560000  1
  C  31  1  0.92219150  0.47208050  0.35333100  1
  C  32  1  0.99664250  0.51207850  0.36614300  1
  C  33  1  0.01209600  0.53043300  0.40496600  1
  C  34  1  0.95299600  0.49635300  0.43051400  1
  C  35  1  0.87934950  0.44871850  0.41949700  1
  C  36  1  0.86363750  0.44244450  0.38021400  1
  C  37  1  0.05295850  0.53355650  0.33902900  1
  C  38  1  0.79102000  0.41062100  0.36639800  1
  C  40  1  0.90661750  0.46368950  0.31373100  1
  C  41  1  0.96485950  0.48549750  0.28695400  1
  C  42  1  0.94934550  0.47654050  0.24768200  1
  C  43  1  0.87635950  0.45397350  0.23662300  1
  C  44  1  0.81772750  0.43554950  0.26180100  1
  C  45  1  0.83275000  0.43562200  0.30086800  1
  C  46  1  0.03750700  0.51909400  0.30081500  1
  C  48  1  0.77618750  0.40890950  0.32806900  1
  C  53  1  0.82917950  0.41140350  0.44925000  1
  C  54  1  0.74924850  0.42208950  0.24680700  1
  C  55  1  0.99903800  0.48954000  0.21761000  1
  C  56  1  0.08239900  0.58318700  0.41893600  1
  C  61  1  0.41889100  0.96174500  0.68664500  1
  C  62  1  0.38447950  0.88729650  0.69945400  1
  C  63  1  0.38736800  0.87184200  0.73828100  1
  C  64  1  0.41233050  0.93093950  0.76382800  1
  C  65  1  0.43831950  0.00457950  0.75280800  1
  C  66  1  0.44776850  0.02029650  0.71352800  1
  C  67  1  0.34965850  0.83098350  0.67233500  1
  C  68  1  0.48847150  0.09292150  0.69971700  1
  C  70  1  0.42608750  0.97732550  0.64704500  1
  C  71  1  0.38966700  0.91908400  0.62026500  1
  C  72  1  0.39628300  0.93460200  0.58099600  1
  C  73  1  0.44668600  0.00759300  0.56994300  1
  C  74  1  0.48686250  0.06622750  0.59512400  1
  C  75  1  0.47188500  0.05119400  0.63418800  1
  C  76  1  0.35059100  0.84643200  0.63412300  1
  C  78  1  0.50170550  0.10775250  0.66139100  1
  C  83  1  0.45108550  0.05474150  0.78254400  1
  C  84  1  0.54185050  0.13473250  0.58013500  1
  C  85  1  0.35961050  0.88494750  0.55091300  1
  C  86  1  0.36972250  0.80150750  0.75225400  1
  C  91  1  0.46614750  0.28097450  0.85339100  1
  C  92  1  0.46451300  0.21743300  0.86743200  1
  C  93  1  0.46272500  0.16434400  0.84284100  1
  C  94  1  0.46349200  0.17355500  0.80350900  1
  C  95  1  0.46768550  0.23846350  0.78905800  1
  C  98  1  0.46839950  0.29196850  0.81392000  1
  C  107  1  0.68383500  0.41780000  0.18673000  1
  C  108  1  0.62190850  0.41939950  0.20076800  1
  C  109  1  0.57060350  0.42117450  0.17617600  1
  C  110  1  0.57906800  0.42043500  0.13684200  1
  C  111  1  0.63980450  0.41627550  0.12239500  1
  C  114  1  0.69259550  0.41556550  0.14725900  1
  C  123  1  0.60301350  0.20012950  0.52006100  1
  C  124  1  0.66652100  0.26207200  0.53410400  1
  C  125  1  0.71960300  0.31338700  0.50951500  1
  C  126  1  0.71042150  0.30491450  0.47018100  1
  C  127  1  0.64554650  0.24416150  0.45572900  1
  C  130  1  0.59204550  0.19136050  0.48059000  1
  C  139  1  0.37925700  0.62736300  0.85918000  1
  C  140  1  0.39555850  0.69751350  0.87189500  1
  C  141  1  0.39355950  0.74902350  0.84754600  1
  C  142  1  0.37299150  0.73183650  0.80967900  1
  C  143  1  0.35052100  0.65954200  0.79691200  1
  C  146  1  0.35444300  0.60762800  0.82132000  1
  C  155  1  0.11712250  0.50473350  0.19251600  1
  C  156  1  0.17100350  0.48848650  0.20524400  1
  C  157  1  0.22450650  0.49046950  0.18089600  1
  C  158  1  0.22785200  0.51097000  0.14302100  1
  C  159  1  0.17799450  0.53338250  0.13023700  1
  C  162  1  0.12216350  0.52947650  0.15464700  1
  C  171  1  0.25668800  0.76685500  0.52583800  1
  C  172  1  0.18655250  0.71300150  0.53856600  1
  C  173  1  0.13502100  0.65949000  0.51422400  1
  C  174  1  0.15217900  0.65611200  0.47635200  1
  C  175  1  0.22445900  0.70593600  0.46357100  1
  C  178  1  0.27639450  0.76177150  0.48797200  1
  H  9  1  0.37871250  0.47414250  0.12527800  1
  H  17  1  0.43307600  0.42938300  0.87515000  1
  H  19  1  0.34522450  0.55778850  0.94994000  1
  H  20  1  0.32544450  0.56344350  0.01312900  1
  H  21  1  0.49854750  0.35171650  0.98728800  1
  H  22  1  0.49066350  0.36889350  0.05065600  1
  H  27  1  0.45896500  0.43782900  0.14281900  1
  H  28  1  0.46644550  0.30607750  0.93078500  1
  H  29  1  0.39781850  0.50796150  0.85804600  1
  H  30  1  0.27210050  0.52649050  0.06707700  1
  H  39  1  0.96447100  0.50526300  0.45862300  1
  H  47  1  0.86530050  0.45083150  0.20849500  1
  H  49  1  0.08157950  0.53865650  0.28328800  1
  H  50  1  0.10702450  0.55843750  0.34647600  1
  H  51  1  0.72219250  0.38546550  0.32064200  1
  H  52  1  0.74726450  0.39335350  0.38400600  1
  H  57  1  0.84790100  0.42502200  0.47617500  1
  H  58  1  0.70863550  0.41751650  0.26412600  1
  H  59  1  0.97913500  0.48611000  0.19138600  1
  H  60  1  0.12344250  0.61187550  0.40042200  1
  H  69  1  0.40969550  0.91946050  0.79194100  1
  H  77  1  0.45462000  0.01865500  0.54181100  1
  H  79  1  0.32622650  0.80237150  0.61658300  1
  H  80  1  0.32052150  0.77691250  0.67977900  1
  H  81  1  0.53227450  0.16174750  0.65396700  1
  H  82  1  0.51506750  0.13668350  0.71731400  1
  H  87  1  0.44601200  0.03606000  0.80948100  1
  H  88  1  0.57792200  0.17531500  0.59745700  1
  H  89  1  0.37604350  0.90478850  0.52468000  1
  H  90  1  0.35758450  0.76054850  0.73372300  1
  H  96  1  0.45976250  0.11834850  0.85424000  1
  H  97  1  0.46204850  0.20786950  0.89565200  1
  H  112  1  0.52755950  0.42411550  0.18757100  1
  H  113  1  0.61479500  0.42184800  0.22898900  1
  H  128  1  0.76556950  0.35644850  0.52091300  1
  H  129  1  0.67606150  0.26919650  0.56232500  1
  H  144  1  0.40950450  0.80059250  0.85761600  1
  H  145  1  0.41334800  0.71358300  0.89886200  1
  H  160  1  0.26015050  0.47455750  0.19097600  1
  H  161  1  0.16930950  0.47074350  0.23221700  1
  H  176  1  0.08345950  0.62386850  0.52430400  1
  H  177  1  0.17050000  0.71472300  0.56553600  1
  N  99  1  0.46989050  0.24660950  0.74946300  1
  N  100  1  0.47103200  0.35497100  0.79771900  1
  N  105  1  0.46284200  0.33103500  0.87607800  1
  N  106  1  0.45808200  0.12197400  0.77857900  1
  N  115  1  0.64576100  0.41409000  0.08280100  1
  N  116  1  0.75298500  0.41296500  0.13106200  1
  N  121  1  0.73720600  0.42111900  0.20942000  1
  N  122  1  0.53289150  0.42583250  0.11191400  1
  N  131  1  0.63742100  0.23819900  0.41613100  1
  N  132  1  0.52907300  0.13095800  0.46438700  1
  N  137  1  0.55295550  0.14676450  0.54275100  1
  N  138  1  0.76199450  0.35111050  0.44525600  1
  N  147  1  0.32359950  0.64083550  0.75975800  1
  N  148  1  0.32742500  0.53650500  0.80603100  1
  N  153  1  0.39060300  0.58680600  0.88547700  1
  N  154  1  0.37875750  0.78854350  0.78861600  1
  N  163  1  0.18614900  0.56020400  0.09306600  1
  N  164  1  0.07801900  0.55643400  0.13934100  1
  N  169  1  0.06522650  0.49339950  0.21881600  1
  N  170  1  0.27876350  0.50515150  0.12196000  1
  N  179  1  0.24313050  0.69773350  0.42640800  1
  N  180  1  0.34750650  0.80586950  0.47267200  1
  N  185  1  0.29726300  0.81876400  0.55212700  1
  N  186  1  0.09544250  0.60519850  0.45529400  1
  O  101  1  0.52821850  0.30219350  0.73874000  1
  O  102  1  0.52728350  0.41343650  0.80772500  1
  O  103  1  0.41539150  0.24964650  0.73717300  1
  O  104  1  0.41449750  0.35873350  0.80512000  1
  O  117  1  0.64304300  0.35577600  0.07207300  1
  O  118  1  0.75521550  0.35672250  0.14106300  1
  O  119  1  0.70329250  0.46860450  0.07051900  1
  O  120  1  0.81326700  0.46950800  0.13847200  1
  O  133  1  0.58181850  0.24089450  0.40539500  1
  O  134  1  0.47058350  0.12871050  0.47437700  1
  O  135  1  0.63443100  0.18067800  0.40385500  1
  O  136  1  0.52534850  0.07068750  0.47180500  1
  O  149  1  0.25732900  0.59089200  0.75843400  1
  O  150  1  0.37627250  0.52376450  0.79415700  1
  O  151  1  0.36231700  0.62448600  0.73950400  1
  O  152  1  0.27772000  0.48475300  0.82469100  1
  O  165  1  0.20243400  0.62646000  0.09169700  1
  O  166  1  0.01643000  0.50754200  0.12748800  1
  O  167  1  0.13106450  0.52140950  0.07283600  1
  O  168  1  0.07595650  0.60615950  0.15797600  1
  O  181  1  0.29307550  0.68140850  0.42505900  1
  O  182  1  0.36024350  0.86745350  0.46079100  1
  O  183  1  0.25945650  0.75280650  0.40616100  1
  O  184  1  0.39927300  0.80792100  0.49131800  1
